
---------- Begin Simulation Statistics ----------
simSeconds                                   0.003702                       # Number of seconds simulated (Second)
simTicks                                   3702194000                       # Number of ticks simulated (Tick)
finalTick                                346466488000                       # Number of ticks from beginning of simulation (restored from checkpoints and never reset) (Tick)
simFreq                                  1000000000000                       # The number of ticks per simulated second ((Tick/Second))
hostSeconds                                     16.15                       # Real time elapsed on the host (Second)
hostTickRate                                229256004                       # The number of ticks simulated per host second (ticks/s) ((Tick/Second))
hostMemory                                     158456                       # Number of bytes of host memory used (Byte)
simInsts                                    468420749                       # Number of instructions simulated (Count)
simOps                                      469850318                       # Number of ops (including micro ops) simulated (Count)
hostInstRate                                 29006500                       # Simulator instruction rate (inst/s) ((Count/Second))
hostOpRate                                   29095011                       # Simulator op (including micro ops) rate (op/s) ((Count/Second))
system.bridge.power_state.pwrStateResidencyTicks::UNDEFINED 346466488000                       # Cumulative time (in ticks) in various power states (Tick)
system.cache_hierarchy.dptw_caches.demandHits::processor.cores.core.mmu.dtb.walker         2885                       # number of demand (read+write) hits (Count)
system.cache_hierarchy.dptw_caches.demandHits::total         2885                       # number of demand (read+write) hits (Count)
system.cache_hierarchy.dptw_caches.overallHits::processor.cores.core.mmu.dtb.walker         2885                       # number of overall hits (Count)
system.cache_hierarchy.dptw_caches.overallHits::total         2885                       # number of overall hits (Count)
system.cache_hierarchy.dptw_caches.demandMisses::processor.cores.core.mmu.dtb.walker          290                       # number of demand (read+write) misses (Count)
system.cache_hierarchy.dptw_caches.demandMisses::total          290                       # number of demand (read+write) misses (Count)
system.cache_hierarchy.dptw_caches.overallMisses::processor.cores.core.mmu.dtb.walker          290                       # number of overall misses (Count)
system.cache_hierarchy.dptw_caches.overallMisses::total          290                       # number of overall misses (Count)
system.cache_hierarchy.dptw_caches.demandMissLatency::processor.cores.core.mmu.dtb.walker      4651000                       # number of demand (read+write) miss ticks (Tick)
system.cache_hierarchy.dptw_caches.demandMissLatency::total      4651000                       # number of demand (read+write) miss ticks (Tick)
system.cache_hierarchy.dptw_caches.overallMissLatency::processor.cores.core.mmu.dtb.walker      4651000                       # number of overall miss ticks (Tick)
system.cache_hierarchy.dptw_caches.overallMissLatency::total      4651000                       # number of overall miss ticks (Tick)
system.cache_hierarchy.dptw_caches.demandAccesses::processor.cores.core.mmu.dtb.walker         3175                       # number of demand (read+write) accesses (Count)
system.cache_hierarchy.dptw_caches.demandAccesses::total         3175                       # number of demand (read+write) accesses (Count)
system.cache_hierarchy.dptw_caches.overallAccesses::processor.cores.core.mmu.dtb.walker         3175                       # number of overall (read+write) accesses (Count)
system.cache_hierarchy.dptw_caches.overallAccesses::total         3175                       # number of overall (read+write) accesses (Count)
system.cache_hierarchy.dptw_caches.demandMissRate::processor.cores.core.mmu.dtb.walker     0.091339                       # miss rate for demand accesses (Ratio)
system.cache_hierarchy.dptw_caches.demandMissRate::total     0.091339                       # miss rate for demand accesses (Ratio)
system.cache_hierarchy.dptw_caches.overallMissRate::processor.cores.core.mmu.dtb.walker     0.091339                       # miss rate for overall accesses (Ratio)
system.cache_hierarchy.dptw_caches.overallMissRate::total     0.091339                       # miss rate for overall accesses (Ratio)
system.cache_hierarchy.dptw_caches.demandAvgMissLatency::processor.cores.core.mmu.dtb.walker 16037.931034                       # average overall miss latency in ticks ((Tick/Count))
system.cache_hierarchy.dptw_caches.demandAvgMissLatency::total 16037.931034                       # average overall miss latency in ticks ((Tick/Count))
system.cache_hierarchy.dptw_caches.overallAvgMissLatency::processor.cores.core.mmu.dtb.walker 16037.931034                       # average overall miss latency ((Tick/Count))
system.cache_hierarchy.dptw_caches.overallAvgMissLatency::total 16037.931034                       # average overall miss latency ((Tick/Count))
system.cache_hierarchy.dptw_caches.blockedCycles::no_mshrs            0                       # number of cycles access was blocked (Cycle)
system.cache_hierarchy.dptw_caches.blockedCycles::no_targets            0                       # number of cycles access was blocked (Cycle)
system.cache_hierarchy.dptw_caches.blockedCauses::no_mshrs            0                       # number of times access was blocked (Count)
system.cache_hierarchy.dptw_caches.blockedCauses::no_targets            0                       # number of times access was blocked (Count)
system.cache_hierarchy.dptw_caches.avgBlocked::no_mshrs          nan                       # average number of cycles each access was blocked ((Cycle/Count))
system.cache_hierarchy.dptw_caches.avgBlocked::no_targets          nan                       # average number of cycles each access was blocked ((Cycle/Count))
system.cache_hierarchy.dptw_caches.writebacks::writebacks          288                       # number of writebacks (Count)
system.cache_hierarchy.dptw_caches.writebacks::total          288                       # number of writebacks (Count)
system.cache_hierarchy.dptw_caches.demandMshrMisses::processor.cores.core.mmu.dtb.walker          290                       # number of demand (read+write) MSHR misses (Count)
system.cache_hierarchy.dptw_caches.demandMshrMisses::total          290                       # number of demand (read+write) MSHR misses (Count)
system.cache_hierarchy.dptw_caches.overallMshrMisses::processor.cores.core.mmu.dtb.walker          290                       # number of overall MSHR misses (Count)
system.cache_hierarchy.dptw_caches.overallMshrMisses::total          290                       # number of overall MSHR misses (Count)
system.cache_hierarchy.dptw_caches.demandMshrMissLatency::processor.cores.core.mmu.dtb.walker      4361000                       # number of demand (read+write) MSHR miss ticks (Tick)
system.cache_hierarchy.dptw_caches.demandMshrMissLatency::total      4361000                       # number of demand (read+write) MSHR miss ticks (Tick)
system.cache_hierarchy.dptw_caches.overallMshrMissLatency::processor.cores.core.mmu.dtb.walker      4361000                       # number of overall MSHR miss ticks (Tick)
system.cache_hierarchy.dptw_caches.overallMshrMissLatency::total      4361000                       # number of overall MSHR miss ticks (Tick)
system.cache_hierarchy.dptw_caches.demandMshrMissRate::processor.cores.core.mmu.dtb.walker     0.091339                       # mshr miss ratio for demand accesses (Ratio)
system.cache_hierarchy.dptw_caches.demandMshrMissRate::total     0.091339                       # mshr miss ratio for demand accesses (Ratio)
system.cache_hierarchy.dptw_caches.overallMshrMissRate::processor.cores.core.mmu.dtb.walker     0.091339                       # mshr miss ratio for overall accesses (Ratio)
system.cache_hierarchy.dptw_caches.overallMshrMissRate::total     0.091339                       # mshr miss ratio for overall accesses (Ratio)
system.cache_hierarchy.dptw_caches.demandAvgMshrMissLatency::processor.cores.core.mmu.dtb.walker 15037.931034                       # average overall mshr miss latency ((Tick/Count))
system.cache_hierarchy.dptw_caches.demandAvgMshrMissLatency::total 15037.931034                       # average overall mshr miss latency ((Tick/Count))
system.cache_hierarchy.dptw_caches.overallAvgMshrMissLatency::processor.cores.core.mmu.dtb.walker 15037.931034                       # average overall mshr miss latency ((Tick/Count))
system.cache_hierarchy.dptw_caches.overallAvgMshrMissLatency::total 15037.931034                       # average overall mshr miss latency ((Tick/Count))
system.cache_hierarchy.dptw_caches.replacements          288                       # number of replacements (Count)
system.cache_hierarchy.dptw_caches.ReadReq.hits::processor.cores.core.mmu.dtb.walker         2877                       # number of ReadReq hits (Count)
system.cache_hierarchy.dptw_caches.ReadReq.hits::total         2877                       # number of ReadReq hits (Count)
system.cache_hierarchy.dptw_caches.ReadReq.misses::processor.cores.core.mmu.dtb.walker          288                       # number of ReadReq misses (Count)
system.cache_hierarchy.dptw_caches.ReadReq.misses::total          288                       # number of ReadReq misses (Count)
system.cache_hierarchy.dptw_caches.ReadReq.missLatency::processor.cores.core.mmu.dtb.walker      4641000                       # number of ReadReq miss ticks (Tick)
system.cache_hierarchy.dptw_caches.ReadReq.missLatency::total      4641000                       # number of ReadReq miss ticks (Tick)
system.cache_hierarchy.dptw_caches.ReadReq.accesses::processor.cores.core.mmu.dtb.walker         3165                       # number of ReadReq accesses(hits+misses) (Count)
system.cache_hierarchy.dptw_caches.ReadReq.accesses::total         3165                       # number of ReadReq accesses(hits+misses) (Count)
system.cache_hierarchy.dptw_caches.ReadReq.missRate::processor.cores.core.mmu.dtb.walker     0.090995                       # miss rate for ReadReq accesses (Ratio)
system.cache_hierarchy.dptw_caches.ReadReq.missRate::total     0.090995                       # miss rate for ReadReq accesses (Ratio)
system.cache_hierarchy.dptw_caches.ReadReq.avgMissLatency::processor.cores.core.mmu.dtb.walker 16114.583333                       # average ReadReq miss latency ((Tick/Count))
system.cache_hierarchy.dptw_caches.ReadReq.avgMissLatency::total 16114.583333                       # average ReadReq miss latency ((Tick/Count))
system.cache_hierarchy.dptw_caches.ReadReq.mshrMisses::processor.cores.core.mmu.dtb.walker          288                       # number of ReadReq MSHR misses (Count)
system.cache_hierarchy.dptw_caches.ReadReq.mshrMisses::total          288                       # number of ReadReq MSHR misses (Count)
system.cache_hierarchy.dptw_caches.ReadReq.mshrMissLatency::processor.cores.core.mmu.dtb.walker      4353000                       # number of ReadReq MSHR miss ticks (Tick)
system.cache_hierarchy.dptw_caches.ReadReq.mshrMissLatency::total      4353000                       # number of ReadReq MSHR miss ticks (Tick)
system.cache_hierarchy.dptw_caches.ReadReq.mshrMissRate::processor.cores.core.mmu.dtb.walker     0.090995                       # mshr miss rate for ReadReq accesses (Ratio)
system.cache_hierarchy.dptw_caches.ReadReq.mshrMissRate::total     0.090995                       # mshr miss rate for ReadReq accesses (Ratio)
system.cache_hierarchy.dptw_caches.ReadReq.avgMshrMissLatency::processor.cores.core.mmu.dtb.walker 15114.583333                       # average ReadReq mshr miss latency ((Tick/Count))
system.cache_hierarchy.dptw_caches.ReadReq.avgMshrMissLatency::total 15114.583333                       # average ReadReq mshr miss latency ((Tick/Count))
system.cache_hierarchy.dptw_caches.WriteReq.hits::processor.cores.core.mmu.dtb.walker            8                       # number of WriteReq hits (Count)
system.cache_hierarchy.dptw_caches.WriteReq.hits::total            8                       # number of WriteReq hits (Count)
system.cache_hierarchy.dptw_caches.WriteReq.misses::processor.cores.core.mmu.dtb.walker            2                       # number of WriteReq misses (Count)
system.cache_hierarchy.dptw_caches.WriteReq.misses::total            2                       # number of WriteReq misses (Count)
system.cache_hierarchy.dptw_caches.WriteReq.missLatency::processor.cores.core.mmu.dtb.walker        10000                       # number of WriteReq miss ticks (Tick)
system.cache_hierarchy.dptw_caches.WriteReq.missLatency::total        10000                       # number of WriteReq miss ticks (Tick)
system.cache_hierarchy.dptw_caches.WriteReq.accesses::processor.cores.core.mmu.dtb.walker           10                       # number of WriteReq accesses(hits+misses) (Count)
system.cache_hierarchy.dptw_caches.WriteReq.accesses::total           10                       # number of WriteReq accesses(hits+misses) (Count)
system.cache_hierarchy.dptw_caches.WriteReq.missRate::processor.cores.core.mmu.dtb.walker     0.200000                       # miss rate for WriteReq accesses (Ratio)
system.cache_hierarchy.dptw_caches.WriteReq.missRate::total     0.200000                       # miss rate for WriteReq accesses (Ratio)
system.cache_hierarchy.dptw_caches.WriteReq.avgMissLatency::processor.cores.core.mmu.dtb.walker         5000                       # average WriteReq miss latency ((Tick/Count))
system.cache_hierarchy.dptw_caches.WriteReq.avgMissLatency::total         5000                       # average WriteReq miss latency ((Tick/Count))
system.cache_hierarchy.dptw_caches.WriteReq.mshrMisses::processor.cores.core.mmu.dtb.walker            2                       # number of WriteReq MSHR misses (Count)
system.cache_hierarchy.dptw_caches.WriteReq.mshrMisses::total            2                       # number of WriteReq MSHR misses (Count)
system.cache_hierarchy.dptw_caches.WriteReq.mshrMissLatency::processor.cores.core.mmu.dtb.walker         8000                       # number of WriteReq MSHR miss ticks (Tick)
system.cache_hierarchy.dptw_caches.WriteReq.mshrMissLatency::total         8000                       # number of WriteReq MSHR miss ticks (Tick)
system.cache_hierarchy.dptw_caches.WriteReq.mshrMissRate::processor.cores.core.mmu.dtb.walker     0.200000                       # mshr miss rate for WriteReq accesses (Ratio)
system.cache_hierarchy.dptw_caches.WriteReq.mshrMissRate::total     0.200000                       # mshr miss rate for WriteReq accesses (Ratio)
system.cache_hierarchy.dptw_caches.WriteReq.avgMshrMissLatency::processor.cores.core.mmu.dtb.walker         4000                       # average WriteReq mshr miss latency ((Tick/Count))
system.cache_hierarchy.dptw_caches.WriteReq.avgMshrMissLatency::total         4000                       # average WriteReq mshr miss latency ((Tick/Count))
system.cache_hierarchy.dptw_caches.power_state.pwrStateResidencyTicks::UNDEFINED 346466488000                       # Cumulative time (in ticks) in various power states (Tick)
system.cache_hierarchy.dptw_caches.tags.tagsInUse          125                       # Average ticks per tags in use ((Tick/Count))
system.cache_hierarchy.dptw_caches.tags.totalRefs         2766                       # Total number of references to valid blocks. (Count)
system.cache_hierarchy.dptw_caches.tags.sampledRefs          288                       # Sample count of references to valid blocks. (Count)
system.cache_hierarchy.dptw_caches.tags.avgRefs     9.604167                       # Average number of references to valid blocks. ((Count/Count))
system.cache_hierarchy.dptw_caches.tags.warmupTick            0                       # The tick when the warmup percentage was hit. (Tick)
system.cache_hierarchy.dptw_caches.tags.occupancies::processor.cores.core.mmu.dtb.walker          125                       # Average occupied blocks per tick, per requestor ((Count/Tick))
system.cache_hierarchy.dptw_caches.tags.avgOccs::processor.cores.core.mmu.dtb.walker     0.976562                       # Average percentage of cache occupancy ((Ratio/Tick))
system.cache_hierarchy.dptw_caches.tags.avgOccs::total     0.976562                       # Average percentage of cache occupancy ((Ratio/Tick))
system.cache_hierarchy.dptw_caches.tags.occupanciesTaskId::1024          125                       # Occupied blocks per task id (Count)
system.cache_hierarchy.dptw_caches.tags.ageTaskId_1024::0            8                       # Occupied blocks per task id, per block age (Count)
system.cache_hierarchy.dptw_caches.tags.ageTaskId_1024::3           22                       # Occupied blocks per task id, per block age (Count)
system.cache_hierarchy.dptw_caches.tags.ageTaskId_1024::4           95                       # Occupied blocks per task id, per block age (Count)
system.cache_hierarchy.dptw_caches.tags.ratioOccsTaskId::1024     0.976562                       # Ratio of occupied blocks and all blocks, per task id (Ratio)
system.cache_hierarchy.dptw_caches.tags.tagAccesses        12988                       # Number of tag accesses (Count)
system.cache_hierarchy.dptw_caches.tags.dataAccesses        12988                       # Number of data accesses (Count)
system.cache_hierarchy.dptw_caches.tags.power_state.pwrStateResidencyTicks::UNDEFINED 346466488000                       # Cumulative time (in ticks) in various power states (Tick)
system.cache_hierarchy.iocache.demandMisses::lupio_blk          607                       # number of demand (read+write) misses (Count)
system.cache_hierarchy.iocache.demandMisses::total          607                       # number of demand (read+write) misses (Count)
system.cache_hierarchy.iocache.overallMisses::lupio_blk          607                       # number of overall misses (Count)
system.cache_hierarchy.iocache.overallMisses::total          607                       # number of overall misses (Count)
system.cache_hierarchy.iocache.demandMissLatency::lupio_blk     86575000                       # number of demand (read+write) miss ticks (Tick)
system.cache_hierarchy.iocache.demandMissLatency::total     86575000                       # number of demand (read+write) miss ticks (Tick)
system.cache_hierarchy.iocache.overallMissLatency::lupio_blk     86575000                       # number of overall miss ticks (Tick)
system.cache_hierarchy.iocache.overallMissLatency::total     86575000                       # number of overall miss ticks (Tick)
system.cache_hierarchy.iocache.demandAccesses::lupio_blk          607                       # number of demand (read+write) accesses (Count)
system.cache_hierarchy.iocache.demandAccesses::total          607                       # number of demand (read+write) accesses (Count)
system.cache_hierarchy.iocache.overallAccesses::lupio_blk          607                       # number of overall (read+write) accesses (Count)
system.cache_hierarchy.iocache.overallAccesses::total          607                       # number of overall (read+write) accesses (Count)
system.cache_hierarchy.iocache.demandMissRate::lupio_blk            1                       # miss rate for demand accesses (Ratio)
system.cache_hierarchy.iocache.demandMissRate::total            1                       # miss rate for demand accesses (Ratio)
system.cache_hierarchy.iocache.overallMissRate::lupio_blk            1                       # miss rate for overall accesses (Ratio)
system.cache_hierarchy.iocache.overallMissRate::total            1                       # miss rate for overall accesses (Ratio)
system.cache_hierarchy.iocache.demandAvgMissLatency::lupio_blk 142627.677100                       # average overall miss latency in ticks ((Tick/Count))
system.cache_hierarchy.iocache.demandAvgMissLatency::total 142627.677100                       # average overall miss latency in ticks ((Tick/Count))
system.cache_hierarchy.iocache.overallAvgMissLatency::lupio_blk 142627.677100                       # average overall miss latency ((Tick/Count))
system.cache_hierarchy.iocache.overallAvgMissLatency::total 142627.677100                       # average overall miss latency ((Tick/Count))
system.cache_hierarchy.iocache.blockedCycles::no_mshrs            0                       # number of cycles access was blocked (Cycle)
system.cache_hierarchy.iocache.blockedCycles::no_targets            0                       # number of cycles access was blocked (Cycle)
system.cache_hierarchy.iocache.blockedCauses::no_mshrs            0                       # number of times access was blocked (Count)
system.cache_hierarchy.iocache.blockedCauses::no_targets            0                       # number of times access was blocked (Count)
system.cache_hierarchy.iocache.avgBlocked::no_mshrs          nan                       # average number of cycles each access was blocked ((Cycle/Count))
system.cache_hierarchy.iocache.avgBlocked::no_targets          nan                       # average number of cycles each access was blocked ((Cycle/Count))
system.cache_hierarchy.iocache.writebacks::writebacks           67                       # number of writebacks (Count)
system.cache_hierarchy.iocache.writebacks::total           67                       # number of writebacks (Count)
system.cache_hierarchy.iocache.demandMshrMisses::lupio_blk          607                       # number of demand (read+write) MSHR misses (Count)
system.cache_hierarchy.iocache.demandMshrMisses::total          607                       # number of demand (read+write) MSHR misses (Count)
system.cache_hierarchy.iocache.overallMshrMisses::lupio_blk          607                       # number of overall MSHR misses (Count)
system.cache_hierarchy.iocache.overallMshrMisses::total          607                       # number of overall MSHR misses (Count)
system.cache_hierarchy.iocache.demandMshrMissLatency::lupio_blk     56218007                       # number of demand (read+write) MSHR miss ticks (Tick)
system.cache_hierarchy.iocache.demandMshrMissLatency::total     56218007                       # number of demand (read+write) MSHR miss ticks (Tick)
system.cache_hierarchy.iocache.overallMshrMissLatency::lupio_blk     56218007                       # number of overall MSHR miss ticks (Tick)
system.cache_hierarchy.iocache.overallMshrMissLatency::total     56218007                       # number of overall MSHR miss ticks (Tick)
system.cache_hierarchy.iocache.demandMshrMissRate::lupio_blk            1                       # mshr miss ratio for demand accesses (Ratio)
system.cache_hierarchy.iocache.demandMshrMissRate::total            1                       # mshr miss ratio for demand accesses (Ratio)
system.cache_hierarchy.iocache.overallMshrMissRate::lupio_blk            1                       # mshr miss ratio for overall accesses (Ratio)
system.cache_hierarchy.iocache.overallMshrMissRate::total            1                       # mshr miss ratio for overall accesses (Ratio)
system.cache_hierarchy.iocache.demandAvgMshrMissLatency::lupio_blk 92616.156507                       # average overall mshr miss latency ((Tick/Count))
system.cache_hierarchy.iocache.demandAvgMshrMissLatency::total 92616.156507                       # average overall mshr miss latency ((Tick/Count))
system.cache_hierarchy.iocache.overallAvgMshrMissLatency::lupio_blk 92616.156507                       # average overall mshr miss latency ((Tick/Count))
system.cache_hierarchy.iocache.overallAvgMshrMissLatency::total 92616.156507                       # average overall mshr miss latency ((Tick/Count))
system.cache_hierarchy.iocache.replacements          600                       # number of replacements (Count)
system.cache_hierarchy.iocache.ReadReq.misses::lupio_blk          539                       # number of ReadReq misses (Count)
system.cache_hierarchy.iocache.ReadReq.misses::total          539                       # number of ReadReq misses (Count)
system.cache_hierarchy.iocache.ReadReq.missLatency::lupio_blk     78495000                       # number of ReadReq miss ticks (Tick)
system.cache_hierarchy.iocache.ReadReq.missLatency::total     78495000                       # number of ReadReq miss ticks (Tick)
system.cache_hierarchy.iocache.ReadReq.accesses::lupio_blk          539                       # number of ReadReq accesses(hits+misses) (Count)
system.cache_hierarchy.iocache.ReadReq.accesses::total          539                       # number of ReadReq accesses(hits+misses) (Count)
system.cache_hierarchy.iocache.ReadReq.missRate::lupio_blk            1                       # miss rate for ReadReq accesses (Ratio)
system.cache_hierarchy.iocache.ReadReq.missRate::total            1                       # miss rate for ReadReq accesses (Ratio)
system.cache_hierarchy.iocache.ReadReq.avgMissLatency::lupio_blk 145630.797774                       # average ReadReq miss latency ((Tick/Count))
system.cache_hierarchy.iocache.ReadReq.avgMissLatency::total 145630.797774                       # average ReadReq miss latency ((Tick/Count))
system.cache_hierarchy.iocache.ReadReq.mshrMisses::lupio_blk          539                       # number of ReadReq MSHR misses (Count)
system.cache_hierarchy.iocache.ReadReq.mshrMisses::total          539                       # number of ReadReq MSHR misses (Count)
system.cache_hierarchy.iocache.ReadReq.mshrMissLatency::lupio_blk     51545000                       # number of ReadReq MSHR miss ticks (Tick)
system.cache_hierarchy.iocache.ReadReq.mshrMissLatency::total     51545000                       # number of ReadReq MSHR miss ticks (Tick)
system.cache_hierarchy.iocache.ReadReq.mshrMissRate::lupio_blk            1                       # mshr miss rate for ReadReq accesses (Ratio)
system.cache_hierarchy.iocache.ReadReq.mshrMissRate::total            1                       # mshr miss rate for ReadReq accesses (Ratio)
system.cache_hierarchy.iocache.ReadReq.avgMshrMissLatency::lupio_blk 95630.797774                       # average ReadReq mshr miss latency ((Tick/Count))
system.cache_hierarchy.iocache.ReadReq.avgMshrMissLatency::total 95630.797774                       # average ReadReq mshr miss latency ((Tick/Count))
system.cache_hierarchy.iocache.WriteLineReq.misses::lupio_blk           60                       # number of WriteLineReq misses (Count)
system.cache_hierarchy.iocache.WriteLineReq.misses::total           60                       # number of WriteLineReq misses (Count)
system.cache_hierarchy.iocache.WriteLineReq.missLatency::lupio_blk      6971000                       # number of WriteLineReq miss ticks (Tick)
system.cache_hierarchy.iocache.WriteLineReq.missLatency::total      6971000                       # number of WriteLineReq miss ticks (Tick)
system.cache_hierarchy.iocache.WriteLineReq.accesses::lupio_blk           60                       # number of WriteLineReq accesses(hits+misses) (Count)
system.cache_hierarchy.iocache.WriteLineReq.accesses::total           60                       # number of WriteLineReq accesses(hits+misses) (Count)
system.cache_hierarchy.iocache.WriteLineReq.missRate::lupio_blk            1                       # miss rate for WriteLineReq accesses (Ratio)
system.cache_hierarchy.iocache.WriteLineReq.missRate::total            1                       # miss rate for WriteLineReq accesses (Ratio)
system.cache_hierarchy.iocache.WriteLineReq.avgMissLatency::lupio_blk 116183.333333                       # average WriteLineReq miss latency ((Tick/Count))
system.cache_hierarchy.iocache.WriteLineReq.avgMissLatency::total 116183.333333                       # average WriteLineReq miss latency ((Tick/Count))
system.cache_hierarchy.iocache.WriteLineReq.mshrMisses::lupio_blk           60                       # number of WriteLineReq MSHR misses (Count)
system.cache_hierarchy.iocache.WriteLineReq.mshrMisses::total           60                       # number of WriteLineReq MSHR misses (Count)
system.cache_hierarchy.iocache.WriteLineReq.mshrMissLatency::lupio_blk      3964007                       # number of WriteLineReq MSHR miss ticks (Tick)
system.cache_hierarchy.iocache.WriteLineReq.mshrMissLatency::total      3964007                       # number of WriteLineReq MSHR miss ticks (Tick)
system.cache_hierarchy.iocache.WriteLineReq.mshrMissRate::lupio_blk            1                       # mshr miss rate for WriteLineReq accesses (Ratio)
system.cache_hierarchy.iocache.WriteLineReq.mshrMissRate::total            1                       # mshr miss rate for WriteLineReq accesses (Ratio)
system.cache_hierarchy.iocache.WriteLineReq.avgMshrMissLatency::lupio_blk 66066.783333                       # average WriteLineReq mshr miss latency ((Tick/Count))
system.cache_hierarchy.iocache.WriteLineReq.avgMshrMissLatency::total 66066.783333                       # average WriteLineReq mshr miss latency ((Tick/Count))
system.cache_hierarchy.iocache.WriteReq.misses::lupio_blk            8                       # number of WriteReq misses (Count)
system.cache_hierarchy.iocache.WriteReq.misses::total            8                       # number of WriteReq misses (Count)
system.cache_hierarchy.iocache.WriteReq.missLatency::lupio_blk      1109000                       # number of WriteReq miss ticks (Tick)
system.cache_hierarchy.iocache.WriteReq.missLatency::total      1109000                       # number of WriteReq miss ticks (Tick)
system.cache_hierarchy.iocache.WriteReq.accesses::lupio_blk            8                       # number of WriteReq accesses(hits+misses) (Count)
system.cache_hierarchy.iocache.WriteReq.accesses::total            8                       # number of WriteReq accesses(hits+misses) (Count)
system.cache_hierarchy.iocache.WriteReq.missRate::lupio_blk            1                       # miss rate for WriteReq accesses (Ratio)
system.cache_hierarchy.iocache.WriteReq.missRate::total            1                       # miss rate for WriteReq accesses (Ratio)
system.cache_hierarchy.iocache.WriteReq.avgMissLatency::lupio_blk       138625                       # average WriteReq miss latency ((Tick/Count))
system.cache_hierarchy.iocache.WriteReq.avgMissLatency::total       138625                       # average WriteReq miss latency ((Tick/Count))
system.cache_hierarchy.iocache.WriteReq.mshrMisses::lupio_blk            8                       # number of WriteReq MSHR misses (Count)
system.cache_hierarchy.iocache.WriteReq.mshrMisses::total            8                       # number of WriteReq MSHR misses (Count)
system.cache_hierarchy.iocache.WriteReq.mshrMissLatency::lupio_blk       709000                       # number of WriteReq MSHR miss ticks (Tick)
system.cache_hierarchy.iocache.WriteReq.mshrMissLatency::total       709000                       # number of WriteReq MSHR miss ticks (Tick)
system.cache_hierarchy.iocache.WriteReq.mshrMissRate::lupio_blk            1                       # mshr miss rate for WriteReq accesses (Ratio)
system.cache_hierarchy.iocache.WriteReq.mshrMissRate::total            1                       # mshr miss rate for WriteReq accesses (Ratio)
system.cache_hierarchy.iocache.WriteReq.avgMshrMissLatency::lupio_blk        88625                       # average WriteReq mshr miss latency ((Tick/Count))
system.cache_hierarchy.iocache.WriteReq.avgMshrMissLatency::total        88625                       # average WriteReq mshr miss latency ((Tick/Count))
system.cache_hierarchy.iocache.power_state.pwrStateResidencyTicks::UNDEFINED 346466488000                       # Cumulative time (in ticks) in various power states (Tick)
system.cache_hierarchy.iocache.tags.tagsInUse    15.996255                       # Average ticks per tags in use ((Tick/Count))
system.cache_hierarchy.iocache.tags.totalRefs          607                       # Total number of references to valid blocks. (Count)
system.cache_hierarchy.iocache.tags.sampledRefs          607                       # Sample count of references to valid blocks. (Count)
system.cache_hierarchy.iocache.tags.avgRefs            1                       # Average number of references to valid blocks. ((Count/Count))
system.cache_hierarchy.iocache.tags.warmupTick            0                       # The tick when the warmup percentage was hit. (Tick)
system.cache_hierarchy.iocache.tags.occupancies::lupio_blk    15.996255                       # Average occupied blocks per tick, per requestor ((Count/Tick))
system.cache_hierarchy.iocache.tags.avgOccs::lupio_blk     0.999766                       # Average percentage of cache occupancy ((Ratio/Tick))
system.cache_hierarchy.iocache.tags.avgOccs::total     0.999766                       # Average percentage of cache occupancy ((Ratio/Tick))
system.cache_hierarchy.iocache.tags.occupanciesTaskId::1023           16                       # Occupied blocks per task id (Count)
system.cache_hierarchy.iocache.tags.ageTaskId_1023::1           16                       # Occupied blocks per task id, per block age (Count)
system.cache_hierarchy.iocache.tags.ratioOccsTaskId::1023            1                       # Ratio of occupied blocks and all blocks, per task id (Ratio)
system.cache_hierarchy.iocache.tags.tagAccesses         5463                       # Number of tag accesses (Count)
system.cache_hierarchy.iocache.tags.dataAccesses         5463                       # Number of data accesses (Count)
system.cache_hierarchy.iocache.tags.power_state.pwrStateResidencyTicks::UNDEFINED 346466488000                       # Cumulative time (in ticks) in various power states (Tick)
system.cache_hierarchy.iptw_caches.demandHits::processor.cores.core.mmu.itb.walker         1520                       # number of demand (read+write) hits (Count)
system.cache_hierarchy.iptw_caches.demandHits::total         1520                       # number of demand (read+write) hits (Count)
system.cache_hierarchy.iptw_caches.overallHits::processor.cores.core.mmu.itb.walker         1520                       # number of overall hits (Count)
system.cache_hierarchy.iptw_caches.overallHits::total         1520                       # number of overall hits (Count)
system.cache_hierarchy.iptw_caches.demandMisses::processor.cores.core.mmu.itb.walker          223                       # number of demand (read+write) misses (Count)
system.cache_hierarchy.iptw_caches.demandMisses::total          223                       # number of demand (read+write) misses (Count)
system.cache_hierarchy.iptw_caches.overallMisses::processor.cores.core.mmu.itb.walker          223                       # number of overall misses (Count)
system.cache_hierarchy.iptw_caches.overallMisses::total          223                       # number of overall misses (Count)
system.cache_hierarchy.iptw_caches.demandMissLatency::processor.cores.core.mmu.itb.walker      3651000                       # number of demand (read+write) miss ticks (Tick)
system.cache_hierarchy.iptw_caches.demandMissLatency::total      3651000                       # number of demand (read+write) miss ticks (Tick)
system.cache_hierarchy.iptw_caches.overallMissLatency::processor.cores.core.mmu.itb.walker      3651000                       # number of overall miss ticks (Tick)
system.cache_hierarchy.iptw_caches.overallMissLatency::total      3651000                       # number of overall miss ticks (Tick)
system.cache_hierarchy.iptw_caches.demandAccesses::processor.cores.core.mmu.itb.walker         1743                       # number of demand (read+write) accesses (Count)
system.cache_hierarchy.iptw_caches.demandAccesses::total         1743                       # number of demand (read+write) accesses (Count)
system.cache_hierarchy.iptw_caches.overallAccesses::processor.cores.core.mmu.itb.walker         1743                       # number of overall (read+write) accesses (Count)
system.cache_hierarchy.iptw_caches.overallAccesses::total         1743                       # number of overall (read+write) accesses (Count)
system.cache_hierarchy.iptw_caches.demandMissRate::processor.cores.core.mmu.itb.walker     0.127940                       # miss rate for demand accesses (Ratio)
system.cache_hierarchy.iptw_caches.demandMissRate::total     0.127940                       # miss rate for demand accesses (Ratio)
system.cache_hierarchy.iptw_caches.overallMissRate::processor.cores.core.mmu.itb.walker     0.127940                       # miss rate for overall accesses (Ratio)
system.cache_hierarchy.iptw_caches.overallMissRate::total     0.127940                       # miss rate for overall accesses (Ratio)
system.cache_hierarchy.iptw_caches.demandAvgMissLatency::processor.cores.core.mmu.itb.walker 16372.197309                       # average overall miss latency in ticks ((Tick/Count))
system.cache_hierarchy.iptw_caches.demandAvgMissLatency::total 16372.197309                       # average overall miss latency in ticks ((Tick/Count))
system.cache_hierarchy.iptw_caches.overallAvgMissLatency::processor.cores.core.mmu.itb.walker 16372.197309                       # average overall miss latency ((Tick/Count))
system.cache_hierarchy.iptw_caches.overallAvgMissLatency::total 16372.197309                       # average overall miss latency ((Tick/Count))
system.cache_hierarchy.iptw_caches.blockedCycles::no_mshrs            0                       # number of cycles access was blocked (Cycle)
system.cache_hierarchy.iptw_caches.blockedCycles::no_targets            0                       # number of cycles access was blocked (Cycle)
system.cache_hierarchy.iptw_caches.blockedCauses::no_mshrs            0                       # number of times access was blocked (Count)
system.cache_hierarchy.iptw_caches.blockedCauses::no_targets            0                       # number of times access was blocked (Count)
system.cache_hierarchy.iptw_caches.avgBlocked::no_mshrs          nan                       # average number of cycles each access was blocked ((Cycle/Count))
system.cache_hierarchy.iptw_caches.avgBlocked::no_targets          nan                       # average number of cycles each access was blocked ((Cycle/Count))
system.cache_hierarchy.iptw_caches.writebacks::writebacks          216                       # number of writebacks (Count)
system.cache_hierarchy.iptw_caches.writebacks::total          216                       # number of writebacks (Count)
system.cache_hierarchy.iptw_caches.demandMshrMisses::processor.cores.core.mmu.itb.walker          223                       # number of demand (read+write) MSHR misses (Count)
system.cache_hierarchy.iptw_caches.demandMshrMisses::total          223                       # number of demand (read+write) MSHR misses (Count)
system.cache_hierarchy.iptw_caches.overallMshrMisses::processor.cores.core.mmu.itb.walker          223                       # number of overall MSHR misses (Count)
system.cache_hierarchy.iptw_caches.overallMshrMisses::total          223                       # number of overall MSHR misses (Count)
system.cache_hierarchy.iptw_caches.demandMshrMissLatency::processor.cores.core.mmu.itb.walker      3428000                       # number of demand (read+write) MSHR miss ticks (Tick)
system.cache_hierarchy.iptw_caches.demandMshrMissLatency::total      3428000                       # number of demand (read+write) MSHR miss ticks (Tick)
system.cache_hierarchy.iptw_caches.overallMshrMissLatency::processor.cores.core.mmu.itb.walker      3428000                       # number of overall MSHR miss ticks (Tick)
system.cache_hierarchy.iptw_caches.overallMshrMissLatency::total      3428000                       # number of overall MSHR miss ticks (Tick)
system.cache_hierarchy.iptw_caches.demandMshrMissRate::processor.cores.core.mmu.itb.walker     0.127940                       # mshr miss ratio for demand accesses (Ratio)
system.cache_hierarchy.iptw_caches.demandMshrMissRate::total     0.127940                       # mshr miss ratio for demand accesses (Ratio)
system.cache_hierarchy.iptw_caches.overallMshrMissRate::processor.cores.core.mmu.itb.walker     0.127940                       # mshr miss ratio for overall accesses (Ratio)
system.cache_hierarchy.iptw_caches.overallMshrMissRate::total     0.127940                       # mshr miss ratio for overall accesses (Ratio)
system.cache_hierarchy.iptw_caches.demandAvgMshrMissLatency::processor.cores.core.mmu.itb.walker 15372.197309                       # average overall mshr miss latency ((Tick/Count))
system.cache_hierarchy.iptw_caches.demandAvgMshrMissLatency::total 15372.197309                       # average overall mshr miss latency ((Tick/Count))
system.cache_hierarchy.iptw_caches.overallAvgMshrMissLatency::processor.cores.core.mmu.itb.walker 15372.197309                       # average overall mshr miss latency ((Tick/Count))
system.cache_hierarchy.iptw_caches.overallAvgMshrMissLatency::total 15372.197309                       # average overall mshr miss latency ((Tick/Count))
system.cache_hierarchy.iptw_caches.replacements          216                       # number of replacements (Count)
system.cache_hierarchy.iptw_caches.ReadReq.hits::processor.cores.core.mmu.itb.walker         1516                       # number of ReadReq hits (Count)
system.cache_hierarchy.iptw_caches.ReadReq.hits::total         1516                       # number of ReadReq hits (Count)
system.cache_hierarchy.iptw_caches.ReadReq.misses::processor.cores.core.mmu.itb.walker          220                       # number of ReadReq misses (Count)
system.cache_hierarchy.iptw_caches.ReadReq.misses::total          220                       # number of ReadReq misses (Count)
system.cache_hierarchy.iptw_caches.ReadReq.missLatency::processor.cores.core.mmu.itb.walker      3581000                       # number of ReadReq miss ticks (Tick)
system.cache_hierarchy.iptw_caches.ReadReq.missLatency::total      3581000                       # number of ReadReq miss ticks (Tick)
system.cache_hierarchy.iptw_caches.ReadReq.accesses::processor.cores.core.mmu.itb.walker         1736                       # number of ReadReq accesses(hits+misses) (Count)
system.cache_hierarchy.iptw_caches.ReadReq.accesses::total         1736                       # number of ReadReq accesses(hits+misses) (Count)
system.cache_hierarchy.iptw_caches.ReadReq.missRate::processor.cores.core.mmu.itb.walker     0.126728                       # miss rate for ReadReq accesses (Ratio)
system.cache_hierarchy.iptw_caches.ReadReq.missRate::total     0.126728                       # miss rate for ReadReq accesses (Ratio)
system.cache_hierarchy.iptw_caches.ReadReq.avgMissLatency::processor.cores.core.mmu.itb.walker 16277.272727                       # average ReadReq miss latency ((Tick/Count))
system.cache_hierarchy.iptw_caches.ReadReq.avgMissLatency::total 16277.272727                       # average ReadReq miss latency ((Tick/Count))
system.cache_hierarchy.iptw_caches.ReadReq.mshrMisses::processor.cores.core.mmu.itb.walker          220                       # number of ReadReq MSHR misses (Count)
system.cache_hierarchy.iptw_caches.ReadReq.mshrMisses::total          220                       # number of ReadReq MSHR misses (Count)
system.cache_hierarchy.iptw_caches.ReadReq.mshrMissLatency::processor.cores.core.mmu.itb.walker      3361000                       # number of ReadReq MSHR miss ticks (Tick)
system.cache_hierarchy.iptw_caches.ReadReq.mshrMissLatency::total      3361000                       # number of ReadReq MSHR miss ticks (Tick)
system.cache_hierarchy.iptw_caches.ReadReq.mshrMissRate::processor.cores.core.mmu.itb.walker     0.126728                       # mshr miss rate for ReadReq accesses (Ratio)
system.cache_hierarchy.iptw_caches.ReadReq.mshrMissRate::total     0.126728                       # mshr miss rate for ReadReq accesses (Ratio)
system.cache_hierarchy.iptw_caches.ReadReq.avgMshrMissLatency::processor.cores.core.mmu.itb.walker 15277.272727                       # average ReadReq mshr miss latency ((Tick/Count))
system.cache_hierarchy.iptw_caches.ReadReq.avgMshrMissLatency::total 15277.272727                       # average ReadReq mshr miss latency ((Tick/Count))
system.cache_hierarchy.iptw_caches.WriteReq.hits::processor.cores.core.mmu.itb.walker            4                       # number of WriteReq hits (Count)
system.cache_hierarchy.iptw_caches.WriteReq.hits::total            4                       # number of WriteReq hits (Count)
system.cache_hierarchy.iptw_caches.WriteReq.misses::processor.cores.core.mmu.itb.walker            3                       # number of WriteReq misses (Count)
system.cache_hierarchy.iptw_caches.WriteReq.misses::total            3                       # number of WriteReq misses (Count)
system.cache_hierarchy.iptw_caches.WriteReq.missLatency::processor.cores.core.mmu.itb.walker        70000                       # number of WriteReq miss ticks (Tick)
system.cache_hierarchy.iptw_caches.WriteReq.missLatency::total        70000                       # number of WriteReq miss ticks (Tick)
system.cache_hierarchy.iptw_caches.WriteReq.accesses::processor.cores.core.mmu.itb.walker            7                       # number of WriteReq accesses(hits+misses) (Count)
system.cache_hierarchy.iptw_caches.WriteReq.accesses::total            7                       # number of WriteReq accesses(hits+misses) (Count)
system.cache_hierarchy.iptw_caches.WriteReq.missRate::processor.cores.core.mmu.itb.walker     0.428571                       # miss rate for WriteReq accesses (Ratio)
system.cache_hierarchy.iptw_caches.WriteReq.missRate::total     0.428571                       # miss rate for WriteReq accesses (Ratio)
system.cache_hierarchy.iptw_caches.WriteReq.avgMissLatency::processor.cores.core.mmu.itb.walker 23333.333333                       # average WriteReq miss latency ((Tick/Count))
system.cache_hierarchy.iptw_caches.WriteReq.avgMissLatency::total 23333.333333                       # average WriteReq miss latency ((Tick/Count))
system.cache_hierarchy.iptw_caches.WriteReq.mshrMisses::processor.cores.core.mmu.itb.walker            3                       # number of WriteReq MSHR misses (Count)
system.cache_hierarchy.iptw_caches.WriteReq.mshrMisses::total            3                       # number of WriteReq MSHR misses (Count)
system.cache_hierarchy.iptw_caches.WriteReq.mshrMissLatency::processor.cores.core.mmu.itb.walker        67000                       # number of WriteReq MSHR miss ticks (Tick)
system.cache_hierarchy.iptw_caches.WriteReq.mshrMissLatency::total        67000                       # number of WriteReq MSHR miss ticks (Tick)
system.cache_hierarchy.iptw_caches.WriteReq.mshrMissRate::processor.cores.core.mmu.itb.walker     0.428571                       # mshr miss rate for WriteReq accesses (Ratio)
system.cache_hierarchy.iptw_caches.WriteReq.mshrMissRate::total     0.428571                       # mshr miss rate for WriteReq accesses (Ratio)
system.cache_hierarchy.iptw_caches.WriteReq.avgMshrMissLatency::processor.cores.core.mmu.itb.walker 22333.333333                       # average WriteReq mshr miss latency ((Tick/Count))
system.cache_hierarchy.iptw_caches.WriteReq.avgMshrMissLatency::total 22333.333333                       # average WriteReq mshr miss latency ((Tick/Count))
system.cache_hierarchy.iptw_caches.power_state.pwrStateResidencyTicks::UNDEFINED 346466488000                       # Cumulative time (in ticks) in various power states (Tick)
system.cache_hierarchy.iptw_caches.tags.tagsInUse    44.417398                       # Average ticks per tags in use ((Tick/Count))
system.cache_hierarchy.iptw_caches.tags.totalRefs         1697                       # Total number of references to valid blocks. (Count)
system.cache_hierarchy.iptw_caches.tags.sampledRefs          217                       # Sample count of references to valid blocks. (Count)
system.cache_hierarchy.iptw_caches.tags.avgRefs     7.820276                       # Average number of references to valid blocks. ((Count/Count))
system.cache_hierarchy.iptw_caches.tags.warmupTick            0                       # The tick when the warmup percentage was hit. (Tick)
system.cache_hierarchy.iptw_caches.tags.occupancies::processor.cores.core.mmu.itb.walker    44.417398                       # Average occupied blocks per tick, per requestor ((Count/Tick))
system.cache_hierarchy.iptw_caches.tags.avgOccs::processor.cores.core.mmu.itb.walker     0.347011                       # Average percentage of cache occupancy ((Ratio/Tick))
system.cache_hierarchy.iptw_caches.tags.avgOccs::total     0.347011                       # Average percentage of cache occupancy ((Ratio/Tick))
system.cache_hierarchy.iptw_caches.tags.occupanciesTaskId::1024           45                       # Occupied blocks per task id (Count)
system.cache_hierarchy.iptw_caches.tags.ageTaskId_1024::0            5                       # Occupied blocks per task id, per block age (Count)
system.cache_hierarchy.iptw_caches.tags.ageTaskId_1024::3            8                       # Occupied blocks per task id, per block age (Count)
system.cache_hierarchy.iptw_caches.tags.ageTaskId_1024::4           32                       # Occupied blocks per task id, per block age (Count)
system.cache_hierarchy.iptw_caches.tags.ratioOccsTaskId::1024     0.351562                       # Ratio of occupied blocks and all blocks, per task id (Ratio)
system.cache_hierarchy.iptw_caches.tags.tagAccesses         7192                       # Number of tag accesses (Count)
system.cache_hierarchy.iptw_caches.tags.dataAccesses         7192                       # Number of data accesses (Count)
system.cache_hierarchy.iptw_caches.tags.power_state.pwrStateResidencyTicks::UNDEFINED 346466488000                       # Cumulative time (in ticks) in various power states (Tick)
system.cache_hierarchy.l1dcaches.demandHits::processor.cores.core.data      1695333                       # number of demand (read+write) hits (Count)
system.cache_hierarchy.l1dcaches.demandHits::total      1695333                       # number of demand (read+write) hits (Count)
system.cache_hierarchy.l1dcaches.overallHits::processor.cores.core.data      1695333                       # number of overall hits (Count)
system.cache_hierarchy.l1dcaches.overallHits::total      1695333                       # number of overall hits (Count)
system.cache_hierarchy.l1dcaches.demandMisses::processor.cores.core.data         9814                       # number of demand (read+write) misses (Count)
system.cache_hierarchy.l1dcaches.demandMisses::total         9814                       # number of demand (read+write) misses (Count)
system.cache_hierarchy.l1dcaches.overallMisses::processor.cores.core.data         9814                       # number of overall misses (Count)
system.cache_hierarchy.l1dcaches.overallMisses::total         9814                       # number of overall misses (Count)
system.cache_hierarchy.l1dcaches.demandMissLatency::processor.cores.core.data    168940000                       # number of demand (read+write) miss ticks (Tick)
system.cache_hierarchy.l1dcaches.demandMissLatency::total    168940000                       # number of demand (read+write) miss ticks (Tick)
system.cache_hierarchy.l1dcaches.overallMissLatency::processor.cores.core.data    168940000                       # number of overall miss ticks (Tick)
system.cache_hierarchy.l1dcaches.overallMissLatency::total    168940000                       # number of overall miss ticks (Tick)
system.cache_hierarchy.l1dcaches.demandAccesses::processor.cores.core.data      1705147                       # number of demand (read+write) accesses (Count)
system.cache_hierarchy.l1dcaches.demandAccesses::total      1705147                       # number of demand (read+write) accesses (Count)
system.cache_hierarchy.l1dcaches.overallAccesses::processor.cores.core.data      1705147                       # number of overall (read+write) accesses (Count)
system.cache_hierarchy.l1dcaches.overallAccesses::total      1705147                       # number of overall (read+write) accesses (Count)
system.cache_hierarchy.l1dcaches.demandMissRate::processor.cores.core.data     0.005756                       # miss rate for demand accesses (Ratio)
system.cache_hierarchy.l1dcaches.demandMissRate::total     0.005756                       # miss rate for demand accesses (Ratio)
system.cache_hierarchy.l1dcaches.overallMissRate::processor.cores.core.data     0.005756                       # miss rate for overall accesses (Ratio)
system.cache_hierarchy.l1dcaches.overallMissRate::total     0.005756                       # miss rate for overall accesses (Ratio)
system.cache_hierarchy.l1dcaches.demandAvgMissLatency::processor.cores.core.data 17214.183819                       # average overall miss latency in ticks ((Tick/Count))
system.cache_hierarchy.l1dcaches.demandAvgMissLatency::total 17214.183819                       # average overall miss latency in ticks ((Tick/Count))
system.cache_hierarchy.l1dcaches.overallAvgMissLatency::processor.cores.core.data 17214.183819                       # average overall miss latency ((Tick/Count))
system.cache_hierarchy.l1dcaches.overallAvgMissLatency::total 17214.183819                       # average overall miss latency ((Tick/Count))
system.cache_hierarchy.l1dcaches.blockedCycles::no_mshrs            0                       # number of cycles access was blocked (Cycle)
system.cache_hierarchy.l1dcaches.blockedCycles::no_targets         2648                       # number of cycles access was blocked (Cycle)
system.cache_hierarchy.l1dcaches.blockedCauses::no_mshrs            0                       # number of times access was blocked (Count)
system.cache_hierarchy.l1dcaches.blockedCauses::no_targets          389                       # number of times access was blocked (Count)
system.cache_hierarchy.l1dcaches.avgBlocked::no_mshrs          nan                       # average number of cycles each access was blocked ((Cycle/Count))
system.cache_hierarchy.l1dcaches.avgBlocked::no_targets     6.807198                       # average number of cycles each access was blocked ((Cycle/Count))
system.cache_hierarchy.l1dcaches.writebacks::writebacks         1228                       # number of writebacks (Count)
system.cache_hierarchy.l1dcaches.writebacks::total         1228                       # number of writebacks (Count)
system.cache_hierarchy.l1dcaches.demandMshrHits::processor.cores.core.data         8679                       # number of demand (read+write) MSHR hits (Count)
system.cache_hierarchy.l1dcaches.demandMshrHits::total         8679                       # number of demand (read+write) MSHR hits (Count)
system.cache_hierarchy.l1dcaches.overallMshrHits::processor.cores.core.data         8679                       # number of overall MSHR hits (Count)
system.cache_hierarchy.l1dcaches.overallMshrHits::total         8679                       # number of overall MSHR hits (Count)
system.cache_hierarchy.l1dcaches.demandMshrMisses::processor.cores.core.data         1135                       # number of demand (read+write) MSHR misses (Count)
system.cache_hierarchy.l1dcaches.demandMshrMisses::total         1135                       # number of demand (read+write) MSHR misses (Count)
system.cache_hierarchy.l1dcaches.overallMshrMisses::cache_hierarchy.l1dcaches.prefetcher          512                       # number of overall MSHR misses (Count)
system.cache_hierarchy.l1dcaches.overallMshrMisses::processor.cores.core.data         1135                       # number of overall MSHR misses (Count)
system.cache_hierarchy.l1dcaches.overallMshrMisses::total         1647                       # number of overall MSHR misses (Count)
system.cache_hierarchy.l1dcaches.overallMshrUncacheable::processor.cores.core.data          216                       # number of overall MSHR uncacheable misses (Count)
system.cache_hierarchy.l1dcaches.overallMshrUncacheable::total          216                       # number of overall MSHR uncacheable misses (Count)
system.cache_hierarchy.l1dcaches.demandMshrMissLatency::processor.cores.core.data     23388000                       # number of demand (read+write) MSHR miss ticks (Tick)
system.cache_hierarchy.l1dcaches.demandMshrMissLatency::total     23388000                       # number of demand (read+write) MSHR miss ticks (Tick)
system.cache_hierarchy.l1dcaches.overallMshrMissLatency::cache_hierarchy.l1dcaches.prefetcher     15704895                       # number of overall MSHR miss ticks (Tick)
system.cache_hierarchy.l1dcaches.overallMshrMissLatency::processor.cores.core.data     23388000                       # number of overall MSHR miss ticks (Tick)
system.cache_hierarchy.l1dcaches.overallMshrMissLatency::total     39092895                       # number of overall MSHR miss ticks (Tick)
system.cache_hierarchy.l1dcaches.overallMshrUncacheableLatency::processor.cores.core.data      6336000                       # number of overall MSHR uncacheable ticks (Tick)
system.cache_hierarchy.l1dcaches.overallMshrUncacheableLatency::total      6336000                       # number of overall MSHR uncacheable ticks (Tick)
system.cache_hierarchy.l1dcaches.demandMshrMissRate::processor.cores.core.data     0.000666                       # mshr miss ratio for demand accesses (Ratio)
system.cache_hierarchy.l1dcaches.demandMshrMissRate::total     0.000666                       # mshr miss ratio for demand accesses (Ratio)
system.cache_hierarchy.l1dcaches.overallMshrMissRate::cache_hierarchy.l1dcaches.prefetcher          inf                       # mshr miss ratio for overall accesses (Ratio)
system.cache_hierarchy.l1dcaches.overallMshrMissRate::processor.cores.core.data     0.000666                       # mshr miss ratio for overall accesses (Ratio)
system.cache_hierarchy.l1dcaches.overallMshrMissRate::total     0.000966                       # mshr miss ratio for overall accesses (Ratio)
system.cache_hierarchy.l1dcaches.demandAvgMshrMissLatency::processor.cores.core.data 20606.167401                       # average overall mshr miss latency ((Tick/Count))
system.cache_hierarchy.l1dcaches.demandAvgMshrMissLatency::total 20606.167401                       # average overall mshr miss latency ((Tick/Count))
system.cache_hierarchy.l1dcaches.overallAvgMshrMissLatency::cache_hierarchy.l1dcaches.prefetcher 30673.623047                       # average overall mshr miss latency ((Tick/Count))
system.cache_hierarchy.l1dcaches.overallAvgMshrMissLatency::processor.cores.core.data 20606.167401                       # average overall mshr miss latency ((Tick/Count))
system.cache_hierarchy.l1dcaches.overallAvgMshrMissLatency::total 23735.819672                       # average overall mshr miss latency ((Tick/Count))
system.cache_hierarchy.l1dcaches.overallAvgMshrUncacheableLatency::processor.cores.core.data 29333.333333                       # average overall mshr uncacheable latency ((Tick/Count))
system.cache_hierarchy.l1dcaches.overallAvgMshrUncacheableLatency::total 29333.333333                       # average overall mshr uncacheable latency ((Tick/Count))
system.cache_hierarchy.l1dcaches.replacements         1228                       # number of replacements (Count)
system.cache_hierarchy.l1dcaches.HardPFReq.mshrMisses::cache_hierarchy.l1dcaches.prefetcher          512                       # number of HardPFReq MSHR misses (Count)
system.cache_hierarchy.l1dcaches.HardPFReq.mshrMisses::total          512                       # number of HardPFReq MSHR misses (Count)
system.cache_hierarchy.l1dcaches.HardPFReq.mshrMissLatency::cache_hierarchy.l1dcaches.prefetcher     15704895                       # number of HardPFReq MSHR miss ticks (Tick)
system.cache_hierarchy.l1dcaches.HardPFReq.mshrMissLatency::total     15704895                       # number of HardPFReq MSHR miss ticks (Tick)
system.cache_hierarchy.l1dcaches.HardPFReq.mshrMissRate::cache_hierarchy.l1dcaches.prefetcher          inf                       # mshr miss rate for HardPFReq accesses (Ratio)
system.cache_hierarchy.l1dcaches.HardPFReq.mshrMissRate::total          inf                       # mshr miss rate for HardPFReq accesses (Ratio)
system.cache_hierarchy.l1dcaches.HardPFReq.avgMshrMissLatency::cache_hierarchy.l1dcaches.prefetcher 30673.623047                       # average HardPFReq mshr miss latency ((Tick/Count))
system.cache_hierarchy.l1dcaches.HardPFReq.avgMshrMissLatency::total 30673.623047                       # average HardPFReq mshr miss latency ((Tick/Count))
system.cache_hierarchy.l1dcaches.ReadReq.hits::processor.cores.core.data       815040                       # number of ReadReq hits (Count)
system.cache_hierarchy.l1dcaches.ReadReq.hits::total       815040                       # number of ReadReq hits (Count)
system.cache_hierarchy.l1dcaches.ReadReq.misses::processor.cores.core.data         1708                       # number of ReadReq misses (Count)
system.cache_hierarchy.l1dcaches.ReadReq.misses::total         1708                       # number of ReadReq misses (Count)
system.cache_hierarchy.l1dcaches.ReadReq.missLatency::processor.cores.core.data     41874000                       # number of ReadReq miss ticks (Tick)
system.cache_hierarchy.l1dcaches.ReadReq.missLatency::total     41874000                       # number of ReadReq miss ticks (Tick)
system.cache_hierarchy.l1dcaches.ReadReq.accesses::processor.cores.core.data       816748                       # number of ReadReq accesses(hits+misses) (Count)
system.cache_hierarchy.l1dcaches.ReadReq.accesses::total       816748                       # number of ReadReq accesses(hits+misses) (Count)
system.cache_hierarchy.l1dcaches.ReadReq.missRate::processor.cores.core.data     0.002091                       # miss rate for ReadReq accesses (Ratio)
system.cache_hierarchy.l1dcaches.ReadReq.missRate::total     0.002091                       # miss rate for ReadReq accesses (Ratio)
system.cache_hierarchy.l1dcaches.ReadReq.avgMissLatency::processor.cores.core.data 24516.393443                       # average ReadReq miss latency ((Tick/Count))
system.cache_hierarchy.l1dcaches.ReadReq.avgMissLatency::total 24516.393443                       # average ReadReq miss latency ((Tick/Count))
system.cache_hierarchy.l1dcaches.ReadReq.mshrHits::processor.cores.core.data         1108                       # number of ReadReq MSHR hits (Count)
system.cache_hierarchy.l1dcaches.ReadReq.mshrHits::total         1108                       # number of ReadReq MSHR hits (Count)
system.cache_hierarchy.l1dcaches.ReadReq.mshrMisses::processor.cores.core.data          600                       # number of ReadReq MSHR misses (Count)
system.cache_hierarchy.l1dcaches.ReadReq.mshrMisses::total          600                       # number of ReadReq MSHR misses (Count)
system.cache_hierarchy.l1dcaches.ReadReq.mshrUncacheable::processor.cores.core.data           72                       # number of ReadReq MSHR uncacheable (Count)
system.cache_hierarchy.l1dcaches.ReadReq.mshrUncacheable::total           72                       # number of ReadReq MSHR uncacheable (Count)
system.cache_hierarchy.l1dcaches.ReadReq.mshrMissLatency::processor.cores.core.data     10980000                       # number of ReadReq MSHR miss ticks (Tick)
system.cache_hierarchy.l1dcaches.ReadReq.mshrMissLatency::total     10980000                       # number of ReadReq MSHR miss ticks (Tick)
system.cache_hierarchy.l1dcaches.ReadReq.mshrUncacheableLatency::processor.cores.core.data      6336000                       # number of ReadReq MSHR uncacheable ticks (Tick)
system.cache_hierarchy.l1dcaches.ReadReq.mshrUncacheableLatency::total      6336000                       # number of ReadReq MSHR uncacheable ticks (Tick)
system.cache_hierarchy.l1dcaches.ReadReq.mshrMissRate::processor.cores.core.data     0.000735                       # mshr miss rate for ReadReq accesses (Ratio)
system.cache_hierarchy.l1dcaches.ReadReq.mshrMissRate::total     0.000735                       # mshr miss rate for ReadReq accesses (Ratio)
system.cache_hierarchy.l1dcaches.ReadReq.avgMshrMissLatency::processor.cores.core.data        18300                       # average ReadReq mshr miss latency ((Tick/Count))
system.cache_hierarchy.l1dcaches.ReadReq.avgMshrMissLatency::total        18300                       # average ReadReq mshr miss latency ((Tick/Count))
system.cache_hierarchy.l1dcaches.ReadReq.avgMshrUncacheableLatency::processor.cores.core.data        88000                       # average ReadReq mshr uncacheable latency ((Tick/Count))
system.cache_hierarchy.l1dcaches.ReadReq.avgMshrUncacheableLatency::total        88000                       # average ReadReq mshr uncacheable latency ((Tick/Count))
system.cache_hierarchy.l1dcaches.SwapReq.hits::processor.cores.core.data        22034                       # number of SwapReq hits (Count)
system.cache_hierarchy.l1dcaches.SwapReq.hits::total        22034                       # number of SwapReq hits (Count)
system.cache_hierarchy.l1dcaches.SwapReq.misses::processor.cores.core.data            5                       # number of SwapReq misses (Count)
system.cache_hierarchy.l1dcaches.SwapReq.misses::total            5                       # number of SwapReq misses (Count)
system.cache_hierarchy.l1dcaches.SwapReq.missLatency::processor.cores.core.data       165000                       # number of SwapReq miss ticks (Tick)
system.cache_hierarchy.l1dcaches.SwapReq.missLatency::total       165000                       # number of SwapReq miss ticks (Tick)
system.cache_hierarchy.l1dcaches.SwapReq.accesses::processor.cores.core.data        22039                       # number of SwapReq accesses(hits+misses) (Count)
system.cache_hierarchy.l1dcaches.SwapReq.accesses::total        22039                       # number of SwapReq accesses(hits+misses) (Count)
system.cache_hierarchy.l1dcaches.SwapReq.missRate::processor.cores.core.data     0.000227                       # miss rate for SwapReq accesses (Ratio)
system.cache_hierarchy.l1dcaches.SwapReq.missRate::total     0.000227                       # miss rate for SwapReq accesses (Ratio)
system.cache_hierarchy.l1dcaches.SwapReq.avgMissLatency::processor.cores.core.data        33000                       # average SwapReq miss latency ((Tick/Count))
system.cache_hierarchy.l1dcaches.SwapReq.avgMissLatency::total        33000                       # average SwapReq miss latency ((Tick/Count))
system.cache_hierarchy.l1dcaches.SwapReq.mshrMisses::processor.cores.core.data            5                       # number of SwapReq MSHR misses (Count)
system.cache_hierarchy.l1dcaches.SwapReq.mshrMisses::total            5                       # number of SwapReq MSHR misses (Count)
system.cache_hierarchy.l1dcaches.SwapReq.mshrMissLatency::processor.cores.core.data       160000                       # number of SwapReq MSHR miss ticks (Tick)
system.cache_hierarchy.l1dcaches.SwapReq.mshrMissLatency::total       160000                       # number of SwapReq MSHR miss ticks (Tick)
system.cache_hierarchy.l1dcaches.SwapReq.mshrMissRate::processor.cores.core.data     0.000227                       # mshr miss rate for SwapReq accesses (Ratio)
system.cache_hierarchy.l1dcaches.SwapReq.mshrMissRate::total     0.000227                       # mshr miss rate for SwapReq accesses (Ratio)
system.cache_hierarchy.l1dcaches.SwapReq.avgMshrMissLatency::processor.cores.core.data        32000                       # average SwapReq mshr miss latency ((Tick/Count))
system.cache_hierarchy.l1dcaches.SwapReq.avgMshrMissLatency::total        32000                       # average SwapReq mshr miss latency ((Tick/Count))
system.cache_hierarchy.l1dcaches.WriteReq.hits::processor.cores.core.data       880293                       # number of WriteReq hits (Count)
system.cache_hierarchy.l1dcaches.WriteReq.hits::total       880293                       # number of WriteReq hits (Count)
system.cache_hierarchy.l1dcaches.WriteReq.misses::processor.cores.core.data         8106                       # number of WriteReq misses (Count)
system.cache_hierarchy.l1dcaches.WriteReq.misses::total         8106                       # number of WriteReq misses (Count)
system.cache_hierarchy.l1dcaches.WriteReq.missLatency::processor.cores.core.data    127066000                       # number of WriteReq miss ticks (Tick)
system.cache_hierarchy.l1dcaches.WriteReq.missLatency::total    127066000                       # number of WriteReq miss ticks (Tick)
system.cache_hierarchy.l1dcaches.WriteReq.accesses::processor.cores.core.data       888399                       # number of WriteReq accesses(hits+misses) (Count)
system.cache_hierarchy.l1dcaches.WriteReq.accesses::total       888399                       # number of WriteReq accesses(hits+misses) (Count)
system.cache_hierarchy.l1dcaches.WriteReq.missRate::processor.cores.core.data     0.009124                       # miss rate for WriteReq accesses (Ratio)
system.cache_hierarchy.l1dcaches.WriteReq.missRate::total     0.009124                       # miss rate for WriteReq accesses (Ratio)
system.cache_hierarchy.l1dcaches.WriteReq.avgMissLatency::processor.cores.core.data 15675.548976                       # average WriteReq miss latency ((Tick/Count))
system.cache_hierarchy.l1dcaches.WriteReq.avgMissLatency::total 15675.548976                       # average WriteReq miss latency ((Tick/Count))
system.cache_hierarchy.l1dcaches.WriteReq.mshrHits::processor.cores.core.data         7571                       # number of WriteReq MSHR hits (Count)
system.cache_hierarchy.l1dcaches.WriteReq.mshrHits::total         7571                       # number of WriteReq MSHR hits (Count)
system.cache_hierarchy.l1dcaches.WriteReq.mshrMisses::processor.cores.core.data          535                       # number of WriteReq MSHR misses (Count)
system.cache_hierarchy.l1dcaches.WriteReq.mshrMisses::total          535                       # number of WriteReq MSHR misses (Count)
system.cache_hierarchy.l1dcaches.WriteReq.mshrUncacheable::processor.cores.core.data          144                       # number of WriteReq MSHR uncacheable (Count)
system.cache_hierarchy.l1dcaches.WriteReq.mshrUncacheable::total          144                       # number of WriteReq MSHR uncacheable (Count)
system.cache_hierarchy.l1dcaches.WriteReq.mshrMissLatency::processor.cores.core.data     12408000                       # number of WriteReq MSHR miss ticks (Tick)
system.cache_hierarchy.l1dcaches.WriteReq.mshrMissLatency::total     12408000                       # number of WriteReq MSHR miss ticks (Tick)
system.cache_hierarchy.l1dcaches.WriteReq.mshrMissRate::processor.cores.core.data     0.000602                       # mshr miss rate for WriteReq accesses (Ratio)
system.cache_hierarchy.l1dcaches.WriteReq.mshrMissRate::total     0.000602                       # mshr miss rate for WriteReq accesses (Ratio)
system.cache_hierarchy.l1dcaches.WriteReq.avgMshrMissLatency::processor.cores.core.data 23192.523364                       # average WriteReq mshr miss latency ((Tick/Count))
system.cache_hierarchy.l1dcaches.WriteReq.avgMshrMissLatency::total 23192.523364                       # average WriteReq mshr miss latency ((Tick/Count))
system.cache_hierarchy.l1dcaches.power_state.pwrStateResidencyTicks::UNDEFINED 346466488000                       # Cumulative time (in ticks) in various power states (Tick)
system.cache_hierarchy.l1dcaches.prefetcher.demandMshrMisses         1135                       # demands not covered by prefetchs (Count)
system.cache_hierarchy.l1dcaches.prefetcher.pfIssued        19303                       # number of hwpf issued (Count)
system.cache_hierarchy.l1dcaches.prefetcher.pfUnused           64                       # number of HardPF blocks evicted w/o reference (Count)
system.cache_hierarchy.l1dcaches.prefetcher.pfUseful         4292                       # number of useful prefetch (Count)
system.cache_hierarchy.l1dcaches.prefetcher.pfUsefulButMiss         3857                       # number of hit on prefetch but cache block is not in an usable state (Count)
system.cache_hierarchy.l1dcaches.prefetcher.accuracy     0.222349                       # accuracy of the prefetcher (Count)
system.cache_hierarchy.l1dcaches.prefetcher.coverage     0.790861                       # coverage brought by this prefetcher (Count)
system.cache_hierarchy.l1dcaches.prefetcher.pfHitInCache        16205                       # number of prefetches hitting in cache (Count)
system.cache_hierarchy.l1dcaches.prefetcher.pfHitInMSHR         2586                       # number of prefetches hitting in a MSHR (Count)
system.cache_hierarchy.l1dcaches.prefetcher.pfHitInWB            0                       # number of prefetches hit in the Write Buffer (Count)
system.cache_hierarchy.l1dcaches.prefetcher.pfLate        18791                       # number of late prefetches (hitting in cache, MSHR or WB) (Count)
system.cache_hierarchy.l1dcaches.prefetcher.pfIdentified        32529                       # number of prefetch candidates identified (Count)
system.cache_hierarchy.l1dcaches.prefetcher.pfBufferHit        12367                       # number of redundant prefetches already in prefetch queue (Count)
system.cache_hierarchy.l1dcaches.prefetcher.pfInCache            0                       # number of redundant prefetches already in cache/mshr dropped (Count)
system.cache_hierarchy.l1dcaches.prefetcher.pfRemovedDemand            1                       # number of prefetches dropped due to a demand for the same address (Count)
system.cache_hierarchy.l1dcaches.prefetcher.pfRemovedFull            0                       # number of prefetches dropped due to prefetch queue size (Count)
system.cache_hierarchy.l1dcaches.prefetcher.pfSpanPage         1055                       # number of prefetches that crossed the page (Count)
system.cache_hierarchy.l1dcaches.prefetcher.pfUsefulSpanPage          326                       # number of prefetches that is useful and crossed the page (Count)
system.cache_hierarchy.l1dcaches.prefetcher.power_state.pwrStateResidencyTicks::UNDEFINED 346466488000                       # Cumulative time (in ticks) in various power states (Tick)
system.cache_hierarchy.l1dcaches.tags.tagsInUse   511.779604                       # Average ticks per tags in use ((Tick/Count))
system.cache_hierarchy.l1dcaches.tags.totalRefs       905154                       # Total number of references to valid blocks. (Count)
system.cache_hierarchy.l1dcaches.tags.sampledRefs         1246                       # Sample count of references to valid blocks. (Count)
system.cache_hierarchy.l1dcaches.tags.avgRefs   726.447833                       # Average number of references to valid blocks. ((Count/Count))
system.cache_hierarchy.l1dcaches.tags.warmupTick            0                       # The tick when the warmup percentage was hit. (Tick)
system.cache_hierarchy.l1dcaches.tags.occupancies::cache_hierarchy.l1dcaches.prefetcher   197.095697                       # Average occupied blocks per tick, per requestor ((Count/Tick))
system.cache_hierarchy.l1dcaches.tags.occupancies::processor.cores.core.data   314.683907                       # Average occupied blocks per tick, per requestor ((Count/Tick))
system.cache_hierarchy.l1dcaches.tags.avgOccs::cache_hierarchy.l1dcaches.prefetcher     0.384953                       # Average percentage of cache occupancy ((Ratio/Tick))
system.cache_hierarchy.l1dcaches.tags.avgOccs::processor.cores.core.data     0.614617                       # Average percentage of cache occupancy ((Ratio/Tick))
system.cache_hierarchy.l1dcaches.tags.avgOccs::total     0.999570                       # Average percentage of cache occupancy ((Ratio/Tick))
system.cache_hierarchy.l1dcaches.tags.occupanciesTaskId::1022          211                       # Occupied blocks per task id (Count)
system.cache_hierarchy.l1dcaches.tags.occupanciesTaskId::1024          301                       # Occupied blocks per task id (Count)
system.cache_hierarchy.l1dcaches.tags.ageTaskId_1022::2           32                       # Occupied blocks per task id, per block age (Count)
system.cache_hierarchy.l1dcaches.tags.ageTaskId_1022::3          172                       # Occupied blocks per task id, per block age (Count)
system.cache_hierarchy.l1dcaches.tags.ageTaskId_1022::4            7                       # Occupied blocks per task id, per block age (Count)
system.cache_hierarchy.l1dcaches.tags.ageTaskId_1024::0           70                       # Occupied blocks per task id, per block age (Count)
system.cache_hierarchy.l1dcaches.tags.ageTaskId_1024::2            7                       # Occupied blocks per task id, per block age (Count)
system.cache_hierarchy.l1dcaches.tags.ageTaskId_1024::3          201                       # Occupied blocks per task id, per block age (Count)
system.cache_hierarchy.l1dcaches.tags.ageTaskId_1024::4           23                       # Occupied blocks per task id, per block age (Count)
system.cache_hierarchy.l1dcaches.tags.ratioOccsTaskId::1022     0.412109                       # Ratio of occupied blocks and all blocks, per task id (Ratio)
system.cache_hierarchy.l1dcaches.tags.ratioOccsTaskId::1024     0.587891                       # Ratio of occupied blocks and all blocks, per task id (Ratio)
system.cache_hierarchy.l1dcaches.tags.tagAccesses     13818734                       # Number of tag accesses (Count)
system.cache_hierarchy.l1dcaches.tags.dataAccesses     13818734                       # Number of data accesses (Count)
system.cache_hierarchy.l1dcaches.tags.power_state.pwrStateResidencyTicks::UNDEFINED 346466488000                       # Cumulative time (in ticks) in various power states (Tick)
system.cache_hierarchy.l1icaches.demandHits::processor.cores.core.inst      1209735                       # number of demand (read+write) hits (Count)
system.cache_hierarchy.l1icaches.demandHits::total      1209735                       # number of demand (read+write) hits (Count)
system.cache_hierarchy.l1icaches.overallHits::processor.cores.core.inst      1209735                       # number of overall hits (Count)
system.cache_hierarchy.l1icaches.overallHits::total      1209735                       # number of overall hits (Count)
system.cache_hierarchy.l1icaches.demandMisses::processor.cores.core.inst         2305                       # number of demand (read+write) misses (Count)
system.cache_hierarchy.l1icaches.demandMisses::total         2305                       # number of demand (read+write) misses (Count)
system.cache_hierarchy.l1icaches.overallMisses::processor.cores.core.inst         2305                       # number of overall misses (Count)
system.cache_hierarchy.l1icaches.overallMisses::total         2305                       # number of overall misses (Count)
system.cache_hierarchy.l1icaches.demandMissLatency::processor.cores.core.inst     60244000                       # number of demand (read+write) miss ticks (Tick)
system.cache_hierarchy.l1icaches.demandMissLatency::total     60244000                       # number of demand (read+write) miss ticks (Tick)
system.cache_hierarchy.l1icaches.overallMissLatency::processor.cores.core.inst     60244000                       # number of overall miss ticks (Tick)
system.cache_hierarchy.l1icaches.overallMissLatency::total     60244000                       # number of overall miss ticks (Tick)
[...]
system.processor.cores.core.commit.committedInstType_0::SimdPredAlu            0      0.00%     67.88% # Class of committed instruction (Count)
system.processor.cores.core.commit.committedInstType_0::MemRead       945487     17.41%     85.28% # Class of committed instruction (Count)
system.processor.cores.core.commit.committedInstType_0::MemWrite       796600     14.67%     99.95% # Class of committed instruction (Count)
system.processor.cores.core.commit.committedInstType_0::FloatMemRead         1282      0.02%     99.98% # Class of committed instruction (Count)
system.processor.cores.core.commit.committedInstType_0::FloatMemWrite         1281      0.02%    100.00% # Class of committed instruction (Count)
system.processor.cores.core.commit.committedInstType_0::IprAccess            0      0.00%    100.00% # Class of committed instruction (Count)
system.processor.cores.core.commit.committedInstType_0::InstPrefetch            0      0.00%    100.00% # Class of committed instruction (Count)
system.processor.cores.core.commit.committedInstType_0::total      5430881                       # Class of committed instruction (Count)
system.processor.cores.core.commit.commitEligibleSamples       335540                       # number cycles where commit BW limit reached (Cycle)
system.processor.cores.core.decode.idleCycles       145090                       # Number of cycles decode is idle (Cycle)
system.processor.cores.core.decode.blockedCycles      2099963                       # Number of cycles decode is blocked (Cycle)
system.processor.cores.core.decode.runCycles       759420                       # Number of cycles decode is running (Cycle)
system.processor.cores.core.decode.unblockCycles       167781                       # Number of cycles decode is unblocking (Cycle)
system.processor.cores.core.decode.squashCycles        23867                       # Number of cycles decode is squashing (Cycle)
system.processor.cores.core.decode.branchResolved       114088                       # Number of times decode resolved a branch (Count)
system.processor.cores.core.decode.branchMispred          173                       # Number of times decode detected a branch misprediction (Count)
system.processor.cores.core.decode.decodedInsts      6528657                       # Number of instructions handled by decode (Count)
system.processor.cores.core.decode.squashedInsts          716                       # Number of squashed instructions handled by decode (Count)
system.processor.cores.core.fetch.icacheStallCycles        35353                       # Number of cycles fetch is stalled on an Icache miss (Cycle)
system.processor.cores.core.fetch.insts       7401940                       # Number of instructions fetch has processed (Count)
system.processor.cores.core.fetch.branches      1001279                       # Number of branches that fetch encountered (Count)
system.processor.cores.core.fetch.predictedBranches       823724                       # Number of branches that fetch has predicted taken (Count)
system.processor.cores.core.fetch.cycles      3133842                       # Number of cycles fetch has run and was not squashing or blocked (Cycle)
system.processor.cores.core.fetch.squashCycles        48064                       # Number of cycles fetch has spent squashing (Cycle)
system.processor.cores.core.fetch.tlbCycles         1426                       # Number of cycles fetch has spent waiting for tlb (Cycle)
system.processor.cores.core.fetch.miscStallCycles          804                       # Number of cycles fetch has spent waiting on interrupts, or bad addresses, or out of MSHRs (Cycle)
system.processor.cores.core.fetch.pendingTrapStallCycles          664                       # Number of stall cycles due to pending traps (Cycle)
system.processor.cores.core.fetch.cacheLines      1070101                       # Number of cache lines fetched (Count)
system.processor.cores.core.fetch.icacheSquashes          463                       # Number of outstanding Icache misses that were squashed (Count)
system.processor.cores.core.fetch.tlbSquashes           18                       # Number of outstanding ITLB misses that were squashed (Count)
system.processor.cores.core.fetch.nisnDist::samples      3196121                       # Number of instructions fetched each cycle (Total) (Count)
system.processor.cores.core.fetch.nisnDist::mean     2.319094                       # Number of instructions fetched each cycle (Total) (Count)
system.processor.cores.core.fetch.nisnDist::stdev     3.009647                       # Number of instructions fetched each cycle (Total) (Count)
system.processor.cores.core.fetch.nisnDist::underflows            0      0.00%      0.00% # Number of instructions fetched each cycle (Total) (Count)
system.processor.cores.core.fetch.nisnDist::0      1701084     53.22%     53.22% # Number of instructions fetched each cycle (Total) (Count)
system.processor.cores.core.fetch.nisnDist::1       180596      5.65%     58.87% # Number of instructions fetched each cycle (Total) (Count)
system.processor.cores.core.fetch.nisnDist::2       173313      5.42%     64.30% # Number of instructions fetched each cycle (Total) (Count)
system.processor.cores.core.fetch.nisnDist::3        88223      2.76%     67.06% # Number of instructions fetched each cycle (Total) (Count)
system.processor.cores.core.fetch.nisnDist::4       240337      7.52%     74.58% # Number of instructions fetched each cycle (Total) (Count)
system.processor.cores.core.fetch.nisnDist::5       143240      4.48%     79.06% # Number of instructions fetched each cycle (Total) (Count)
system.processor.cores.core.fetch.nisnDist::6       193934      6.07%     85.13% # Number of instructions fetched each cycle (Total) (Count)
system.processor.cores.core.fetch.nisnDist::7        24089      0.75%     85.88% # Number of instructions fetched each cycle (Total) (Count)
system.processor.cores.core.fetch.nisnDist::8       451305     14.12%    100.00% # Number of instructions fetched each cycle (Total) (Count)
system.processor.cores.core.fetch.nisnDist::overflows            0      0.00%    100.00% # Number of instructions fetched each cycle (Total) (Count)
system.processor.cores.core.fetch.nisnDist::min_value            0                       # Number of instructions fetched each cycle (Total) (Count)
system.processor.cores.core.fetch.nisnDist::max_value            8                       # Number of instructions fetched each cycle (Total) (Count)
system.processor.cores.core.fetch.nisnDist::total      3196121                       # Number of instructions fetched each cycle (Total) (Count)
system.processor.cores.core.fetch.branchRate     0.313234                       # Number of branch fetches per cycle (Ratio)
system.processor.cores.core.fetch.rate       2.315580                       # Number of inst fetches per cycle ((Count/Cycle))
system.processor.cores.core.iew.idleCycles            0                       # Number of cycles IEW is idle (Cycle)
system.processor.cores.core.iew.squashCycles        23867                       # Number of cycles IEW is squashing (Cycle)
system.processor.cores.core.iew.blockCycles       102044                       # Number of cycles IEW is blocking (Cycle)
system.processor.cores.core.iew.unblockCycles          243                       # Number of cycles IEW is unblocking (Cycle)
system.processor.cores.core.iew.dispatchedInsts      6320708                       # Number of instructions dispatched to IQ (Count)
system.processor.cores.core.iew.dispSquashedInsts          596                       # Number of squashed instructions skipped by dispatch (Count)
system.processor.cores.core.iew.dispLoadInsts      1151122                       # Number of dispatched load instructions (Count)
system.processor.cores.core.iew.dispStoreInsts       952899                       # Number of dispatched store instructions (Count)
system.processor.cores.core.iew.dispNonSpecInsts       130073                       # Number of dispatched non-speculative instructions (Count)
system.processor.cores.core.iew.iqFullEvents           40                       # Number of times the IQ has become full, causing a stall (Count)
system.processor.cores.core.iew.lsqFullEvents          143                       # Number of times the LSQ has become full, causing a stall (Count)
system.processor.cores.core.iew.memOrderViolationEvents        20363                       # Number of memory order violations (Count)
system.processor.cores.core.iew.predictedTakenIncorrect         1767                       # Number of branches that were predicted taken incorrectly (Count)
system.processor.cores.core.iew.predictedNotTakenIncorrect         3359                       # Number of branches that were predicted not taken incorrectly (Count)
system.processor.cores.core.iew.branchMispredicts         5126                       # Number of branch mispredicts detected at execute (Count)
system.processor.cores.core.iew.instsToCommit      6002110                       # Cumulative count of insts sent to commit (Count)
system.processor.cores.core.iew.writebackCount      5999304                       # Cumulative count of insts written-back (Count)
system.processor.cores.core.iew.producerInst      4023317                       # Number of instructions producing a value (Count)
system.processor.cores.core.iew.consumerInst      6053165                       # Number of instructions consuming a value (Count)
system.processor.cores.core.iew.wbRate       1.876788                       # Insts written-back per cycle ((Count/Cycle))
system.processor.cores.core.iew.wbFanout     0.664663                       # Average fanout of values written-back ((Count/Count))
system.processor.cores.core.lsq0.forwLoads       339120                       # Number of loads that had data forwarded from stores (Count)
system.processor.cores.core.lsq0.squashedLoads       223921                       # Number of loads squashed (Count)
system.processor.cores.core.lsq0.ignoredResponses           66                       # Number of memory responses ignored because the instruction is squashed (Count)
system.processor.cores.core.lsq0.memOrderViolation        20363                       # Number of memory ordering violations (Count)
system.processor.cores.core.lsq0.squashedStores       135410                       # Number of stores squashed (Count)
system.processor.cores.core.lsq0.rescheduledLoads          431                       # Number of loads that were rescheduled (Count)
system.processor.cores.core.lsq0.blockedByCache          357                       # Number of times an access to memory failed due to the cache being blocked (Count)
system.processor.cores.core.lsq0.loadToUse::samples       927201                       # Distribution of cycle latency between the first time a load is issued and its completion (Unspecified)
system.processor.cores.core.lsq0.loadToUse::mean     2.331463                       # Distribution of cycle latency between the first time a load is issued and its completion (Unspecified)
system.processor.cores.core.lsq0.loadToUse::stdev     1.134911                       # Distribution of cycle latency between the first time a load is issued and its completion (Unspecified)
system.processor.cores.core.lsq0.loadToUse::0-9       926284     99.90%     99.90% # Distribution of cycle latency between the first time a load is issued and its completion (Unspecified)
system.processor.cores.core.lsq0.loadToUse::10-19          713      0.08%     99.98% # Distribution of cycle latency between the first time a load is issued and its completion (Unspecified)
system.processor.cores.core.lsq0.loadToUse::20-29           69      0.01%     99.99% # Distribution of cycle latency between the first time a load is issued and its completion (Unspecified)
system.processor.cores.core.lsq0.loadToUse::30-39           20      0.00%     99.99% # Distribution of cycle latency between the first time a load is issued and its completion (Unspecified)
system.processor.cores.core.lsq0.loadToUse::40-49           36      0.00%     99.99% # Distribution of cycle latency between the first time a load is issued and its completion (Unspecified)
system.processor.cores.core.lsq0.loadToUse::50-59           11      0.00%     99.99% # Distribution of cycle latency between the first time a load is issued and its completion (Unspecified)
system.processor.cores.core.lsq0.loadToUse::60-69           35      0.00%    100.00% # Distribution of cycle latency between the first time a load is issued and its completion (Unspecified)
system.processor.cores.core.lsq0.loadToUse::80-89            1      0.00%    100.00% # Distribution of cycle latency between the first time a load is issued and its completion (Unspecified)
system.processor.cores.core.lsq0.loadToUse::130-139           31      0.00%    100.00% # Distribution of cycle latency between the first time a load is issued and its completion (Unspecified)
system.processor.cores.core.lsq0.loadToUse::140-149            1      0.00%    100.00% # Distribution of cycle latency between the first time a load is issued and its completion (Unspecified)
system.processor.cores.core.lsq0.loadToUse::min_value            2                       # Distribution of cycle latency between the first time a load is issued and its completion (Unspecified)
system.processor.cores.core.lsq0.loadToUse::max_value          148                       # Distribution of cycle latency between the first time a load is issued and its completion (Unspecified)
system.processor.cores.core.lsq0.loadToUse::total       927201                       # Distribution of cycle latency between the first time a load is issued and its completion (Unspecified)
system.processor.cores.core.mmu.dtb.readHits      1066643                       # read hits (Count)
system.processor.cores.core.mmu.dtb.readMisses          467                       # read misses (Count)
system.processor.cores.core.mmu.dtb.readAccesses      1067110                       # read accesses (Count)
system.processor.cores.core.mmu.dtb.writeHits       855112                       # write hits (Count)
system.processor.cores.core.mmu.dtb.writeMisses          128                       # write misses (Count)
system.processor.cores.core.mmu.dtb.writeAccesses       855240                       # write accesses (Count)
system.processor.cores.core.mmu.dtb.hits      1921755                       # Total TLB (read and write) hits (Count)
system.processor.cores.core.mmu.dtb.misses          595                       # Total TLB (read and write) misses (Count)
system.processor.cores.core.mmu.dtb.accesses      1922350                       # Total TLB (read and write) accesses (Count)
system.processor.cores.core.mmu.dtb.walker.power_state.pwrStateResidencyTicks::UNDEFINED   3196593000                       # Cumulative time (in ticks) in various power states (Tick)
system.processor.cores.core.mmu.itb.readHits      1070115                       # read hits (Count)
system.processor.cores.core.mmu.itb.readMisses          323                       # read misses (Count)
system.processor.cores.core.mmu.itb.readAccesses      1070438                       # read accesses (Count)
system.processor.cores.core.mmu.itb.writeHits            0                       # write hits (Count)
system.processor.cores.core.mmu.itb.writeMisses            0                       # write misses (Count)
system.processor.cores.core.mmu.itb.writeAccesses            0                       # write accesses (Count)
system.processor.cores.core.mmu.itb.hits      1070115                       # Total TLB (read and write) hits (Count)
system.processor.cores.core.mmu.itb.misses          323                       # Total TLB (read and write) misses (Count)
system.processor.cores.core.mmu.itb.accesses      1070438                       # Total TLB (read and write) accesses (Count)
system.processor.cores.core.mmu.itb.walker.power_state.pwrStateResidencyTicks::UNDEFINED   3196593000                       # Cumulative time (in ticks) in various power states (Tick)
system.processor.cores.core.power_state.pwrStateResidencyTicks::ON   3196593000                       # Cumulative time (in ticks) in various power states (Tick)
system.processor.cores.core.rename.squashCycles        23867                       # Number of cycles rename is squashing (Cycle)
system.processor.cores.core.rename.idleCycles       218287                       # Number of cycles rename is idle (Cycle)
system.processor.cores.core.rename.blockCycles       103697                       # Number of cycles rename is blocking (Cycle)
system.processor.cores.core.rename.serializeStallCycles      1817859                       # count of cycles rename stalled for serializing inst (Cycle)
system.processor.cores.core.rename.runCycles       851957                       # Number of cycles rename is running (Cycle)
system.processor.cores.core.rename.unblockCycles       180454                       # Number of cycles rename is unblocking (Cycle)
system.processor.cores.core.rename.renamedInsts      6350204                       # Number of instructions processed by rename (Count)
system.processor.cores.core.rename.ROBFullEvents           12                       # Number of times rename has blocked due to ROB full (Count)
system.processor.cores.core.rename.IQFullEvents        55991                       # Number of times rename has blocked due to IQ full (Count)
system.processor.cores.core.rename.LQFullEvents         7456                       # Number of times rename has blocked due to LQ full (Count)
system.processor.cores.core.rename.SQFullEvents         3916                       # Number of times rename has blocked due to SQ full (Count)
system.processor.cores.core.rename.renamedOperands      4839103                       # Number of destination operands rename has renamed (Count)
system.processor.cores.core.rename.lookups      7772398                       # Number of register rename lookups that rename has made (Count)
system.processor.cores.core.rename.intLookups      7603058                       # Number of integer rename lookups (Count)
system.processor.cores.core.rename.fpLookups         1288                       # Number of floating rename lookups (Count)
system.processor.cores.core.rename.committedMaps      4174080                       # Number of HB maps that are committed (Count)
system.processor.cores.core.rename.undoneMaps       665023                       # Number of HB maps that are undone due to squashing (Count)
system.processor.cores.core.rename.serializing       100265                       # count of serializing insts renamed (Count)
system.processor.cores.core.rename.tempSerializing       100349                       # count of temporary serializing insts renamed (Count)
system.processor.cores.core.rename.skidInsts       739578                       # count of insts added to the skid buffer (Count)
system.processor.cores.core.rob.reads         9054057                       # The number of ROB reads (Count)
system.processor.cores.core.rob.writes       12762716                       # The number of ROB writes (Count)
system.processor.cores.core.thread_0.numInsts      5421077                       # Number of Instructions committed (Count)
system.processor.cores.core.thread_0.numOps      5430881                       # Number of Ops committed (Count)
system.processor.cores.core.thread_0.numMemRefs            0                       # Number of Memory References (Count)
system.workload.inst.arm                            0                       # number of arm instructions executed (Count)
system.workload.inst.quiesce                        0                       # number of quiesce instructions executed (Count)

---------- End Simulation Statistics   ----------
