
---------- Begin Simulation Statistics ----------
simSeconds                                   0.168984                       # Number of seconds simulated (Second)
simTicks                                 168984274000                       # Number of ticks simulated (Tick)
finalTick                                285799798000                       # Number of ticks from beginning of simulation (restored from checkpoints and never reset) (Tick)
simFreq                                  1000000000000                       # The number of ticks per simulated second ((Tick/Second))
hostSeconds                                    831.31                       # Real time elapsed on the host (Second)
hostTickRate                                203275502                       # The number of ticks simulated per host second (ticks/s) ((Tick/Second))
hostMemory                                     158444                       # Number of bytes of host memory used (Byte)
simInsts                                    409220674                       # Number of instructions simulated (Count)
simOps                                      410181434                       # Number of ops (including micro ops) simulated (Count)
hostInstRate                                   492262                       # Simulator instruction rate (inst/s) ((Count/Second))
hostOpRate                                     493418                       # Simulator op (including micro ops) rate (op/s) ((Count/Second))
system.bridge.power_state.pwrStateResidencyTicks::UNDEFINED 285799798000                       # Cumulative time (in ticks) in various power states (Tick)
system.cache_hierarchy.dptw_caches.demandHits::processor.cores.core.mmu.dtb.walker        39651                       # number of demand (read+write) hits (Count)
system.cache_hierarchy.dptw_caches.demandHits::total        39651                       # number of demand (read+write) hits (Count)
system.cache_hierarchy.dptw_caches.overallHits::processor.cores.core.mmu.dtb.walker        39651                       # number of overall hits (Count)
system.cache_hierarchy.dptw_caches.overallHits::total        39651                       # number of overall hits (Count)
system.cache_hierarchy.dptw_caches.demandMisses::processor.cores.core.mmu.dtb.walker         3751                       # number of demand (read+write) misses (Count)
system.cache_hierarchy.dptw_caches.demandMisses::total         3751                       # number of demand (read+write) misses (Count)
system.cache_hierarchy.dptw_caches.overallMisses::processor.cores.core.mmu.dtb.walker         3751                       # number of overall misses (Count)
system.cache_hierarchy.dptw_caches.overallMisses::total         3751                       # number of overall misses (Count)
system.cache_hierarchy.dptw_caches.demandMissLatency::processor.cores.core.mmu.dtb.walker     58016000                       # number of demand (read+write) miss ticks (Tick)
system.cache_hierarchy.dptw_caches.demandMissLatency::total     58016000                       # number of demand (read+write) miss ticks (Tick)
system.cache_hierarchy.dptw_caches.overallMissLatency::processor.cores.core.mmu.dtb.walker     58016000                       # number of overall miss ticks (Tick)
system.cache_hierarchy.dptw_caches.overallMissLatency::total     58016000                       # number of overall miss ticks (Tick)
system.cache_hierarchy.dptw_caches.demandAccesses::processor.cores.core.mmu.dtb.walker        43402                       # number of demand (read+write) accesses (Count)
system.cache_hierarchy.dptw_caches.demandAccesses::total        43402                       # number of demand (read+write) accesses (Count)
system.cache_hierarchy.dptw_caches.overallAccesses::processor.cores.core.mmu.dtb.walker        43402                       # number of overall (read+write) accesses (Count)
system.cache_hierarchy.dptw_caches.overallAccesses::total        43402                       # number of overall (read+write) accesses (Count)
system.cache_hierarchy.dptw_caches.demandMissRate::processor.cores.core.mmu.dtb.walker     0.086425                       # miss rate for demand accesses (Ratio)
system.cache_hierarchy.dptw_caches.demandMissRate::total     0.086425                       # miss rate for demand accesses (Ratio)
system.cache_hierarchy.dptw_caches.overallMissRate::processor.cores.core.mmu.dtb.walker     0.086425                       # miss rate for overall accesses (Ratio)
system.cache_hierarchy.dptw_caches.overallMissRate::total     0.086425                       # miss rate for overall accesses (Ratio)
system.cache_hierarchy.dptw_caches.demandAvgMissLatency::processor.cores.core.mmu.dtb.walker 15466.808851                       # average overall miss latency in ticks ((Tick/Count))
system.cache_hierarchy.dptw_caches.demandAvgMissLatency::total 15466.808851                       # average overall miss latency in ticks ((Tick/Count))
system.cache_hierarchy.dptw_caches.overallAvgMissLatency::processor.cores.core.mmu.dtb.walker 15466.808851                       # average overall miss latency ((Tick/Count))
system.cache_hierarchy.dptw_caches.overallAvgMissLatency::total 15466.808851                       # average overall miss latency ((Tick/Count))
system.cache_hierarchy.dptw_caches.blockedCycles::no_mshrs            0                       # number of cycles access was blocked (Cycle)
system.cache_hierarchy.dptw_caches.blockedCycles::no_targets            0                       # number of cycles access was blocked (Cycle)
system.cache_hierarchy.dptw_caches.blockedCauses::no_mshrs            0                       # number of times access was blocked (Count)
system.cache_hierarchy.dptw_caches.blockedCauses::no_targets            0                       # number of times access was blocked (Count)
system.cache_hierarchy.dptw_caches.avgBlocked::no_mshrs          nan                       # average number of cycles each access was blocked ((Cycle/Count))
system.cache_hierarchy.dptw_caches.avgBlocked::no_targets          nan                       # average number of cycles each access was blocked ((Cycle/Count))
system.cache_hierarchy.dptw_caches.writebacks::writebacks         3639                       # number of writebacks (Count)
system.cache_hierarchy.dptw_caches.writebacks::total         3639                       # number of writebacks (Count)
system.cache_hierarchy.dptw_caches.demandMshrMisses::processor.cores.core.mmu.dtb.walker         3751                       # number of demand (read+write) MSHR misses (Count)
system.cache_hierarchy.dptw_caches.demandMshrMisses::total         3751                       # number of demand (read+write) MSHR misses (Count)
system.cache_hierarchy.dptw_caches.overallMshrMisses::processor.cores.core.mmu.dtb.walker         3751                       # number of overall MSHR misses (Count)
system.cache_hierarchy.dptw_caches.overallMshrMisses::total         3751                       # number of overall MSHR misses (Count)
system.cache_hierarchy.dptw_caches.demandMshrMissLatency::processor.cores.core.mmu.dtb.walker     54265000                       # number of demand (read+write) MSHR miss ticks (Tick)
system.cache_hierarchy.dptw_caches.demandMshrMissLatency::total     54265000                       # number of demand (read+write) MSHR miss ticks (Tick)
system.cache_hierarchy.dptw_caches.overallMshrMissLatency::processor.cores.core.mmu.dtb.walker     54265000                       # number of overall MSHR miss ticks (Tick)
system.cache_hierarchy.dptw_caches.overallMshrMissLatency::total     54265000                       # number of overall MSHR miss ticks (Tick)
system.cache_hierarchy.dptw_caches.demandMshrMissRate::processor.cores.core.mmu.dtb.walker     0.086425                       # mshr miss ratio for demand accesses (Ratio)
system.cache_hierarchy.dptw_caches.demandMshrMissRate::total     0.086425                       # mshr miss ratio for demand accesses (Ratio)
system.cache_hierarchy.dptw_caches.overallMshrMissRate::processor.cores.core.mmu.dtb.walker     0.086425                       # mshr miss ratio for overall accesses (Ratio)
system.cache_hierarchy.dptw_caches.overallMshrMissRate::total     0.086425                       # mshr miss ratio for overall accesses (Ratio)
system.cache_hierarchy.dptw_caches.demandAvgMshrMissLatency::processor.cores.core.mmu.dtb.walker 14466.808851                       # average overall mshr miss latency ((Tick/Count))
system.cache_hierarchy.dptw_caches.demandAvgMshrMissLatency::total 14466.808851                       # average overall mshr miss latency ((Tick/Count))
system.cache_hierarchy.dptw_caches.overallAvgMshrMissLatency::processor.cores.core.mmu.dtb.walker 14466.808851                       # average overall mshr miss latency ((Tick/Count))
system.cache_hierarchy.dptw_caches.overallAvgMshrMissLatency::total 14466.808851                       # average overall mshr miss latency ((Tick/Count))
system.cache_hierarchy.dptw_caches.replacements         3639                       # number of replacements (Count)
system.cache_hierarchy.dptw_caches.ReadReq.hits::processor.cores.core.mmu.dtb.walker        39575                       # number of ReadReq hits (Count)
system.cache_hierarchy.dptw_caches.ReadReq.hits::total        39575                       # number of ReadReq hits (Count)
system.cache_hierarchy.dptw_caches.ReadReq.misses::processor.cores.core.mmu.dtb.walker         3727                       # number of ReadReq misses (Count)
system.cache_hierarchy.dptw_caches.ReadReq.misses::total         3727                       # number of ReadReq misses (Count)
system.cache_hierarchy.dptw_caches.ReadReq.missLatency::processor.cores.core.mmu.dtb.walker     57838000                       # number of ReadReq miss ticks (Tick)
system.cache_hierarchy.dptw_caches.ReadReq.missLatency::total     57838000                       # number of ReadReq miss ticks (Tick)
system.cache_hierarchy.dptw_caches.ReadReq.accesses::processor.cores.core.mmu.dtb.walker        43302                       # number of ReadReq accesses(hits+misses) (Count)
system.cache_hierarchy.dptw_caches.ReadReq.accesses::total        43302                       # number of ReadReq accesses(hits+misses) (Count)
system.cache_hierarchy.dptw_caches.ReadReq.missRate::processor.cores.core.mmu.dtb.walker     0.086070                       # miss rate for ReadReq accesses (Ratio)
system.cache_hierarchy.dptw_caches.ReadReq.missRate::total     0.086070                       # miss rate for ReadReq accesses (Ratio)
system.cache_hierarchy.dptw_caches.ReadReq.avgMissLatency::processor.cores.core.mmu.dtb.walker 15518.647706                       # average ReadReq miss latency ((Tick/Count))
system.cache_hierarchy.dptw_caches.ReadReq.avgMissLatency::total 15518.647706                       # average ReadReq miss latency ((Tick/Count))
system.cache_hierarchy.dptw_caches.ReadReq.mshrMisses::processor.cores.core.mmu.dtb.walker         3727                       # number of ReadReq MSHR misses (Count)
system.cache_hierarchy.dptw_caches.ReadReq.mshrMisses::total         3727                       # number of ReadReq MSHR misses (Count)
system.cache_hierarchy.dptw_caches.ReadReq.mshrMissLatency::processor.cores.core.mmu.dtb.walker     54111000                       # number of ReadReq MSHR miss ticks (Tick)
system.cache_hierarchy.dptw_caches.ReadReq.mshrMissLatency::total     54111000                       # number of ReadReq MSHR miss ticks (Tick)
system.cache_hierarchy.dptw_caches.ReadReq.mshrMissRate::processor.cores.core.mmu.dtb.walker     0.086070                       # mshr miss rate for ReadReq accesses (Ratio)
system.cache_hierarchy.dptw_caches.ReadReq.mshrMissRate::total     0.086070                       # mshr miss rate for ReadReq accesses (Ratio)
system.cache_hierarchy.dptw_caches.ReadReq.avgMshrMissLatency::processor.cores.core.mmu.dtb.walker 14518.647706                       # average ReadReq mshr miss latency ((Tick/Count))
system.cache_hierarchy.dptw_caches.ReadReq.avgMshrMissLatency::total 14518.647706                       # average ReadReq mshr miss latency ((Tick/Count))
system.cache_hierarchy.dptw_caches.WriteReq.hits::processor.cores.core.mmu.dtb.walker           76                       # number of WriteReq hits (Count)
system.cache_hierarchy.dptw_caches.WriteReq.hits::total           76                       # number of WriteReq hits (Count)
system.cache_hierarchy.dptw_caches.WriteReq.misses::processor.cores.core.mmu.dtb.walker           24                       # number of WriteReq misses (Count)
system.cache_hierarchy.dptw_caches.WriteReq.misses::total           24                       # number of WriteReq misses (Count)
system.cache_hierarchy.dptw_caches.WriteReq.missLatency::processor.cores.core.mmu.dtb.walker       178000                       # number of WriteReq miss ticks (Tick)
system.cache_hierarchy.dptw_caches.WriteReq.missLatency::total       178000                       # number of WriteReq miss ticks (Tick)
system.cache_hierarchy.dptw_caches.WriteReq.accesses::processor.cores.core.mmu.dtb.walker          100                       # number of WriteReq accesses(hits+misses) (Count)
system.cache_hierarchy.dptw_caches.WriteReq.accesses::total          100                       # number of WriteReq accesses(hits+misses) (Count)
system.cache_hierarchy.dptw_caches.WriteReq.missRate::processor.cores.core.mmu.dtb.walker     0.240000                       # miss rate for WriteReq accesses (Ratio)
system.cache_hierarchy.dptw_caches.WriteReq.missRate::total     0.240000                       # miss rate for WriteReq accesses (Ratio)
system.cache_hierarchy.dptw_caches.WriteReq.avgMissLatency::processor.cores.core.mmu.dtb.walker  7416.666667                       # average WriteReq miss latency ((Tick/Count))
system.cache_hierarchy.dptw_caches.WriteReq.avgMissLatency::total  7416.666667                       # average WriteReq miss latency ((Tick/Count))
system.cache_hierarchy.dptw_caches.WriteReq.mshrMisses::processor.cores.core.mmu.dtb.walker           24                       # number of WriteReq MSHR misses (Count)
system.cache_hierarchy.dptw_caches.WriteReq.mshrMisses::total           24                       # number of WriteReq MSHR misses (Count)
system.cache_hierarchy.dptw_caches.WriteReq.mshrMissLatency::processor.cores.core.mmu.dtb.walker       154000                       # number of WriteReq MSHR miss ticks (Tick)
system.cache_hierarchy.dptw_caches.WriteReq.mshrMissLatency::total       154000                       # number of WriteReq MSHR miss ticks (Tick)
system.cache_hierarchy.dptw_caches.WriteReq.mshrMissRate::processor.cores.core.mmu.dtb.walker     0.240000                       # mshr miss rate for WriteReq accesses (Ratio)
system.cache_hierarchy.dptw_caches.WriteReq.mshrMissRate::total     0.240000                       # mshr miss rate for WriteReq accesses (Ratio)
system.cache_hierarchy.dptw_caches.WriteReq.avgMshrMissLatency::processor.cores.core.mmu.dtb.walker  6416.666667                       # average WriteReq mshr miss latency ((Tick/Count))
system.cache_hierarchy.dptw_caches.WriteReq.avgMshrMissLatency::total  6416.666667                       # average WriteReq mshr miss latency ((Tick/Count))
system.cache_hierarchy.dptw_caches.power_state.pwrStateResidencyTicks::UNDEFINED 285799798000                       # Cumulative time (in ticks) in various power states (Tick)
system.cache_hierarchy.dptw_caches.tags.tagsInUse   112.439582                       # Average ticks per tags in use ((Tick/Count))
system.cache_hierarchy.dptw_caches.tags.totalRefs        38403                       # Total number of references to valid blocks. (Count)
system.cache_hierarchy.dptw_caches.tags.sampledRefs         3663                       # Sample count of references to valid blocks. (Count)
system.cache_hierarchy.dptw_caches.tags.avgRefs    10.484029                       # Average number of references to valid blocks. ((Count/Count))
system.cache_hierarchy.dptw_caches.tags.warmupTick            0                       # The tick when the warmup percentage was hit. (Tick)
system.cache_hierarchy.dptw_caches.tags.occupancies::processor.cores.core.mmu.dtb.walker   112.439582                       # Average occupied blocks per tick, per requestor ((Count/Tick))
system.cache_hierarchy.dptw_caches.tags.avgOccs::processor.cores.core.mmu.dtb.walker     0.878434                       # Average percentage of cache occupancy ((Ratio/Tick))
system.cache_hierarchy.dptw_caches.tags.avgOccs::total     0.878434                       # Average percentage of cache occupancy ((Ratio/Tick))
system.cache_hierarchy.dptw_caches.tags.occupanciesTaskId::1024          118                       # Occupied blocks per task id (Count)
system.cache_hierarchy.dptw_caches.tags.ageTaskId_1024::0            1                       # Occupied blocks per task id, per block age (Count)
system.cache_hierarchy.dptw_caches.tags.ageTaskId_1024::1           12                       # Occupied blocks per task id, per block age (Count)
system.cache_hierarchy.dptw_caches.tags.ageTaskId_1024::3            2                       # Occupied blocks per task id, per block age (Count)
system.cache_hierarchy.dptw_caches.tags.ageTaskId_1024::4          103                       # Occupied blocks per task id, per block age (Count)
system.cache_hierarchy.dptw_caches.tags.ratioOccsTaskId::1024     0.921875                       # Ratio of occupied blocks and all blocks, per task id (Ratio)
system.cache_hierarchy.dptw_caches.tags.tagAccesses       177335                       # Number of tag accesses (Count)
system.cache_hierarchy.dptw_caches.tags.dataAccesses       177335                       # Number of data accesses (Count)
system.cache_hierarchy.dptw_caches.tags.power_state.pwrStateResidencyTicks::UNDEFINED 285799798000                       # Cumulative time (in ticks) in various power states (Tick)
system.cache_hierarchy.iocache.demandHits::lupio_blk           16                       # number of demand (read+write) hits (Count)
system.cache_hierarchy.iocache.demandHits::total           16                       # number of demand (read+write) hits (Count)
system.cache_hierarchy.iocache.overallHits::lupio_blk           16                       # number of overall hits (Count)
system.cache_hierarchy.iocache.overallHits::total           16                       # number of overall hits (Count)
system.cache_hierarchy.iocache.demandMisses::lupio_blk        18494                       # number of demand (read+write) misses (Count)
system.cache_hierarchy.iocache.demandMisses::total        18494                       # number of demand (read+write) misses (Count)
system.cache_hierarchy.iocache.overallMisses::lupio_blk        18494                       # number of overall misses (Count)
system.cache_hierarchy.iocache.overallMisses::total        18494                       # number of overall misses (Count)
system.cache_hierarchy.iocache.demandMissLatency::lupio_blk   2712744000                       # number of demand (read+write) miss ticks (Tick)
system.cache_hierarchy.iocache.demandMissLatency::total   2712744000                       # number of demand (read+write) miss ticks (Tick)
system.cache_hierarchy.iocache.overallMissLatency::lupio_blk   2712744000                       # number of overall miss ticks (Tick)
system.cache_hierarchy.iocache.overallMissLatency::total   2712744000                       # number of overall miss ticks (Tick)
system.cache_hierarchy.iocache.demandAccesses::lupio_blk        18510                       # number of demand (read+write) accesses (Count)
system.cache_hierarchy.iocache.demandAccesses::total        18510                       # number of demand (read+write) accesses (Count)
system.cache_hierarchy.iocache.overallAccesses::lupio_blk        18510                       # number of overall (read+write) accesses (Count)
system.cache_hierarchy.iocache.overallAccesses::total        18510                       # number of overall (read+write) accesses (Count)
system.cache_hierarchy.iocache.demandMissRate::lupio_blk     0.999136                       # miss rate for demand accesses (Ratio)
system.cache_hierarchy.iocache.demandMissRate::total     0.999136                       # miss rate for demand accesses (Ratio)
system.cache_hierarchy.iocache.overallMissRate::lupio_blk     0.999136                       # miss rate for overall accesses (Ratio)
system.cache_hierarchy.iocache.overallMissRate::total     0.999136                       # miss rate for overall accesses (Ratio)
system.cache_hierarchy.iocache.demandAvgMissLatency::lupio_blk 146682.383476                       # average overall miss latency in ticks ((Tick/Count))
system.cache_hierarchy.iocache.demandAvgMissLatency::total 146682.383476                       # average overall miss latency in ticks ((Tick/Count))
system.cache_hierarchy.iocache.overallAvgMissLatency::lupio_blk 146682.383476                       # average overall miss latency ((Tick/Count))
system.cache_hierarchy.iocache.overallAvgMissLatency::total 146682.383476                       # average overall miss latency ((Tick/Count))
system.cache_hierarchy.iocache.blockedCycles::no_mshrs            0                       # number of cycles access was blocked (Cycle)
system.cache_hierarchy.iocache.blockedCycles::no_targets            0                       # number of cycles access was blocked (Cycle)
system.cache_hierarchy.iocache.blockedCauses::no_mshrs            0                       # number of times access was blocked (Count)
system.cache_hierarchy.iocache.blockedCauses::no_targets            0                       # number of times access was blocked (Count)
system.cache_hierarchy.iocache.avgBlocked::no_mshrs          nan                       # average number of cycles each access was blocked ((Cycle/Count))
system.cache_hierarchy.iocache.avgBlocked::no_targets          nan                       # average number of cycles each access was blocked ((Cycle/Count))
system.cache_hierarchy.iocache.writebacks::writebacks          248                       # number of writebacks (Count)
system.cache_hierarchy.iocache.writebacks::total          248                       # number of writebacks (Count)
system.cache_hierarchy.iocache.demandMshrMisses::lupio_blk        18494                       # number of demand (read+write) MSHR misses (Count)
system.cache_hierarchy.iocache.demandMshrMisses::total        18494                       # number of demand (read+write) MSHR misses (Count)
system.cache_hierarchy.iocache.overallMshrMisses::lupio_blk        18494                       # number of overall MSHR misses (Count)
system.cache_hierarchy.iocache.overallMshrMisses::total        18494                       # number of overall MSHR misses (Count)
system.cache_hierarchy.iocache.demandMshrMissLatency::lupio_blk   1788015029                       # number of demand (read+write) MSHR miss ticks (Tick)
system.cache_hierarchy.iocache.demandMshrMissLatency::total   1788015029                       # number of demand (read+write) MSHR miss ticks (Tick)
system.cache_hierarchy.iocache.overallMshrMissLatency::lupio_blk   1788015029                       # number of overall MSHR miss ticks (Tick)
system.cache_hierarchy.iocache.overallMshrMissLatency::total   1788015029                       # number of overall MSHR miss ticks (Tick)
system.cache_hierarchy.iocache.demandMshrMissRate::lupio_blk     0.999136                       # mshr miss ratio for demand accesses (Ratio)
system.cache_hierarchy.iocache.demandMshrMissRate::total     0.999136                       # mshr miss ratio for demand accesses (Ratio)
system.cache_hierarchy.iocache.overallMshrMissRate::lupio_blk     0.999136                       # mshr miss ratio for overall accesses (Ratio)
system.cache_hierarchy.iocache.overallMshrMissRate::total     0.999136                       # mshr miss ratio for overall accesses (Ratio)
system.cache_hierarchy.iocache.demandAvgMshrMissLatency::lupio_blk 96680.816968                       # average overall mshr miss latency ((Tick/Count))
system.cache_hierarchy.iocache.demandAvgMshrMissLatency::total 96680.816968                       # average overall mshr miss latency ((Tick/Count))
system.cache_hierarchy.iocache.overallAvgMshrMissLatency::lupio_blk 96680.816968                       # average overall mshr miss latency ((Tick/Count))
system.cache_hierarchy.iocache.overallAvgMshrMissLatency::total 96680.816968                       # average overall mshr miss latency ((Tick/Count))
system.cache_hierarchy.iocache.replacements        17803                       # number of replacements (Count)
system.cache_hierarchy.iocache.ReadReq.hits::lupio_blk           16                       # number of ReadReq hits (Count)
system.cache_hierarchy.iocache.ReadReq.hits::total           16                       # number of ReadReq hits (Count)
system.cache_hierarchy.iocache.ReadReq.misses::lupio_blk        17854                       # number of ReadReq misses (Count)
system.cache_hierarchy.iocache.ReadReq.misses::total        17854                       # number of ReadReq misses (Count)
system.cache_hierarchy.iocache.ReadReq.missLatency::lupio_blk   2635662000                       # number of ReadReq miss ticks (Tick)
system.cache_hierarchy.iocache.ReadReq.missLatency::total   2635662000                       # number of ReadReq miss ticks (Tick)
system.cache_hierarchy.iocache.ReadReq.accesses::lupio_blk        17870                       # number of ReadReq accesses(hits+misses) (Count)
system.cache_hierarchy.iocache.ReadReq.accesses::total        17870                       # number of ReadReq accesses(hits+misses) (Count)
system.cache_hierarchy.iocache.ReadReq.missRate::lupio_blk     0.999105                       # miss rate for ReadReq accesses (Ratio)
system.cache_hierarchy.iocache.ReadReq.missRate::total     0.999105                       # miss rate for ReadReq accesses (Ratio)
system.cache_hierarchy.iocache.ReadReq.avgMissLatency::lupio_blk 147623.053657                       # average ReadReq miss latency ((Tick/Count))
system.cache_hierarchy.iocache.ReadReq.avgMissLatency::total 147623.053657                       # average ReadReq miss latency ((Tick/Count))
system.cache_hierarchy.iocache.ReadReq.mshrMisses::lupio_blk        17854                       # number of ReadReq MSHR misses (Count)
system.cache_hierarchy.iocache.ReadReq.mshrMisses::total        17854                       # number of ReadReq MSHR misses (Count)
system.cache_hierarchy.iocache.ReadReq.mshrMissLatency::lupio_blk   1742962000                       # number of ReadReq MSHR miss ticks (Tick)
system.cache_hierarchy.iocache.ReadReq.mshrMissLatency::total   1742962000                       # number of ReadReq MSHR miss ticks (Tick)
system.cache_hierarchy.iocache.ReadReq.mshrMissRate::lupio_blk     0.999105                       # mshr miss rate for ReadReq accesses (Ratio)
system.cache_hierarchy.iocache.ReadReq.mshrMissRate::total     0.999105                       # mshr miss rate for ReadReq accesses (Ratio)
system.cache_hierarchy.iocache.ReadReq.avgMshrMissLatency::lupio_blk 97623.053657                       # average ReadReq mshr miss latency ((Tick/Count))
system.cache_hierarchy.iocache.ReadReq.avgMshrMissLatency::total 97623.053657                       # average ReadReq mshr miss latency ((Tick/Count))
system.cache_hierarchy.iocache.WriteLineReq.misses::lupio_blk          576                       # number of WriteLineReq misses (Count)
system.cache_hierarchy.iocache.WriteLineReq.misses::total          576                       # number of WriteLineReq misses (Count)
system.cache_hierarchy.iocache.WriteLineReq.missLatency::lupio_blk     69332000                       # number of WriteLineReq miss ticks (Tick)
system.cache_hierarchy.iocache.WriteLineReq.missLatency::total     69332000                       # number of WriteLineReq miss ticks (Tick)
system.cache_hierarchy.iocache.WriteLineReq.accesses::lupio_blk          576                       # number of WriteLineReq accesses(hits+misses) (Count)
system.cache_hierarchy.iocache.WriteLineReq.accesses::total          576                       # number of WriteLineReq accesses(hits+misses) (Count)
system.cache_hierarchy.iocache.WriteLineReq.missRate::lupio_blk            1                       # miss rate for WriteLineReq accesses (Ratio)
system.cache_hierarchy.iocache.WriteLineReq.missRate::total            1                       # miss rate for WriteLineReq accesses (Ratio)
system.cache_hierarchy.iocache.WriteLineReq.avgMissLatency::lupio_blk 120368.055556                       # average WriteLineReq miss latency ((Tick/Count))
system.cache_hierarchy.iocache.WriteLineReq.avgMissLatency::total 120368.055556                       # average WriteLineReq miss latency ((Tick/Count))
system.cache_hierarchy.iocache.WriteLineReq.mshrMisses::lupio_blk          576                       # number of WriteLineReq MSHR misses (Count)
system.cache_hierarchy.iocache.WriteLineReq.mshrMisses::total          576                       # number of WriteLineReq MSHR misses (Count)
system.cache_hierarchy.iocache.WriteLineReq.mshrMissLatency::lupio_blk     40504028                       # number of WriteLineReq MSHR miss ticks (Tick)
system.cache_hierarchy.iocache.WriteLineReq.mshrMissLatency::total     40504028                       # number of WriteLineReq MSHR miss ticks (Tick)
system.cache_hierarchy.iocache.WriteLineReq.mshrMissRate::lupio_blk            1                       # mshr miss rate for WriteLineReq accesses (Ratio)
system.cache_hierarchy.iocache.WriteLineReq.mshrMissRate::total            1                       # mshr miss rate for WriteLineReq accesses (Ratio)
system.cache_hierarchy.iocache.WriteLineReq.avgMshrMissLatency::lupio_blk 70319.493056                       # average WriteLineReq mshr miss latency ((Tick/Count))
system.cache_hierarchy.iocache.WriteLineReq.avgMshrMissLatency::total 70319.493056                       # average WriteLineReq mshr miss latency ((Tick/Count))
system.cache_hierarchy.iocache.WriteReq.misses::lupio_blk           64                       # number of WriteReq misses (Count)
system.cache_hierarchy.iocache.WriteReq.misses::total           64                       # number of WriteReq misses (Count)
system.cache_hierarchy.iocache.WriteReq.missLatency::lupio_blk      7750000                       # number of WriteReq miss ticks (Tick)
system.cache_hierarchy.iocache.WriteReq.missLatency::total      7750000                       # number of WriteReq miss ticks (Tick)
system.cache_hierarchy.iocache.WriteReq.accesses::lupio_blk           64                       # number of WriteReq accesses(hits+misses) (Count)
system.cache_hierarchy.iocache.WriteReq.accesses::total           64                       # number of WriteReq accesses(hits+misses) (Count)
system.cache_hierarchy.iocache.WriteReq.missRate::lupio_blk            1                       # miss rate for WriteReq accesses (Ratio)
system.cache_hierarchy.iocache.WriteReq.missRate::total            1                       # miss rate for WriteReq accesses (Ratio)
system.cache_hierarchy.iocache.WriteReq.avgMissLatency::lupio_blk 121093.750000                       # average WriteReq miss latency ((Tick/Count))
system.cache_hierarchy.iocache.WriteReq.avgMissLatency::total 121093.750000                       # average WriteReq miss latency ((Tick/Count))
system.cache_hierarchy.iocache.WriteReq.mshrMisses::lupio_blk           64                       # number of WriteReq MSHR misses (Count)
system.cache_hierarchy.iocache.WriteReq.mshrMisses::total           64                       # number of WriteReq MSHR misses (Count)
system.cache_hierarchy.iocache.WriteReq.mshrMissLatency::lupio_blk      4549001                       # number of WriteReq MSHR miss ticks (Tick)
system.cache_hierarchy.iocache.WriteReq.mshrMissLatency::total      4549001                       # number of WriteReq MSHR miss ticks (Tick)
system.cache_hierarchy.iocache.WriteReq.mshrMissRate::lupio_blk            1                       # mshr miss rate for WriteReq accesses (Ratio)
system.cache_hierarchy.iocache.WriteReq.mshrMissRate::total            1                       # mshr miss rate for WriteReq accesses (Ratio)
system.cache_hierarchy.iocache.WriteReq.avgMshrMissLatency::lupio_blk 71078.140625                       # average WriteReq mshr miss latency ((Tick/Count))
system.cache_hierarchy.iocache.WriteReq.avgMshrMissLatency::total 71078.140625                       # average WriteReq mshr miss latency ((Tick/Count))
system.cache_hierarchy.iocache.power_state.pwrStateResidencyTicks::UNDEFINED 285799798000                       # Cumulative time (in ticks) in various power states (Tick)
system.cache_hierarchy.iocache.tags.tagsInUse    15.848981                       # Average ticks per tags in use ((Tick/Count))
system.cache_hierarchy.iocache.tags.totalRefs        18510                       # Total number of references to valid blocks. (Count)
system.cache_hierarchy.iocache.tags.sampledRefs        18494                       # Sample count of references to valid blocks. (Count)
system.cache_hierarchy.iocache.tags.avgRefs     1.000865                       # Average number of references to valid blocks. ((Count/Count))
system.cache_hierarchy.iocache.tags.warmupTick            0                       # The tick when the warmup percentage was hit. (Tick)
system.cache_hierarchy.iocache.tags.occupancies::lupio_blk    15.848981                       # Average occupied blocks per tick, per requestor ((Count/Tick))
system.cache_hierarchy.iocache.tags.avgOccs::lupio_blk     0.990561                       # Average percentage of cache occupancy ((Ratio/Tick))
system.cache_hierarchy.iocache.tags.avgOccs::total     0.990561                       # Average percentage of cache occupancy ((Ratio/Tick))
system.cache_hierarchy.iocache.tags.occupanciesTaskId::1023           16                       # Occupied blocks per task id (Count)
system.cache_hierarchy.iocache.tags.ageTaskId_1023::2           16                       # Occupied blocks per task id, per block age (Count)
system.cache_hierarchy.iocache.tags.ratioOccsTaskId::1023            1                       # Ratio of occupied blocks and all blocks, per task id (Ratio)
system.cache_hierarchy.iocache.tags.tagAccesses       166574                       # Number of tag accesses (Count)
system.cache_hierarchy.iocache.tags.dataAccesses       166574                       # Number of data accesses (Count)
system.cache_hierarchy.iocache.tags.power_state.pwrStateResidencyTicks::UNDEFINED 285799798000                       # Cumulative time (in ticks) in various power states (Tick)
system.cache_hierarchy.iptw_caches.demandHits::processor.cores.core.mmu.itb.walker        18894                       # number of demand (read+write) hits (Count)
system.cache_hierarchy.iptw_caches.demandHits::total        18894                       # number of demand (read+write) hits (Count)
system.cache_hierarchy.iptw_caches.overallHits::processor.cores.core.mmu.itb.walker        18894                       # number of overall hits (Count)
system.cache_hierarchy.iptw_caches.overallHits::total        18894                       # number of overall hits (Count)
system.cache_hierarchy.iptw_caches.demandMisses::processor.cores.core.mmu.itb.walker         2431                       # number of demand (read+write) misses (Count)
system.cache_hierarchy.iptw_caches.demandMisses::total         2431                       # number of demand (read+write) misses (Count)
system.cache_hierarchy.iptw_caches.overallMisses::processor.cores.core.mmu.itb.walker         2431                       # number of overall misses (Count)
system.cache_hierarchy.iptw_caches.overallMisses::total         2431                       # number of overall misses (Count)
system.cache_hierarchy.iptw_caches.demandMissLatency::processor.cores.core.mmu.itb.walker     38020000                       # number of demand (read+write) miss ticks (Tick)
system.cache_hierarchy.iptw_caches.demandMissLatency::total     38020000                       # number of demand (read+write) miss ticks (Tick)
system.cache_hierarchy.iptw_caches.overallMissLatency::processor.cores.core.mmu.itb.walker     38020000                       # number of overall miss ticks (Tick)
system.cache_hierarchy.iptw_caches.overallMissLatency::total     38020000                       # number of overall miss ticks (Tick)
system.cache_hierarchy.iptw_caches.demandAccesses::processor.cores.core.mmu.itb.walker        21325                       # number of demand (read+write) accesses (Count)
system.cache_hierarchy.iptw_caches.demandAccesses::total        21325                       # number of demand (read+write) accesses (Count)
system.cache_hierarchy.iptw_caches.overallAccesses::processor.cores.core.mmu.itb.walker        21325                       # number of overall (read+write) accesses (Count)
system.cache_hierarchy.iptw_caches.overallAccesses::total        21325                       # number of overall (read+write) accesses (Count)
system.cache_hierarchy.iptw_caches.demandMissRate::processor.cores.core.mmu.itb.walker     0.113998                       # miss rate for demand accesses (Ratio)
system.cache_hierarchy.iptw_caches.demandMissRate::total     0.113998                       # miss rate for demand accesses (Ratio)
system.cache_hierarchy.iptw_caches.overallMissRate::processor.cores.core.mmu.itb.walker     0.113998                       # miss rate for overall accesses (Ratio)
system.cache_hierarchy.iptw_caches.overallMissRate::total     0.113998                       # miss rate for overall accesses (Ratio)
system.cache_hierarchy.iptw_caches.demandAvgMissLatency::processor.cores.core.mmu.itb.walker 15639.654463                       # average overall miss latency in ticks ((Tick/Count))
system.cache_hierarchy.iptw_caches.demandAvgMissLatency::total 15639.654463                       # average overall miss latency in ticks ((Tick/Count))
system.cache_hierarchy.iptw_caches.overallAvgMissLatency::processor.cores.core.mmu.itb.walker 15639.654463                       # average overall miss latency ((Tick/Count))
system.cache_hierarchy.iptw_caches.overallAvgMissLatency::total 15639.654463                       # average overall miss latency ((Tick/Count))
system.cache_hierarchy.iptw_caches.blockedCycles::no_mshrs            0                       # number of cycles access was blocked (Cycle)
system.cache_hierarchy.iptw_caches.blockedCycles::no_targets            0                       # number of cycles access was blocked (Cycle)
system.cache_hierarchy.iptw_caches.blockedCauses::no_mshrs            0                       # number of times access was blocked (Count)
system.cache_hierarchy.iptw_caches.blockedCauses::no_targets            0                       # number of times access was blocked (Count)
system.cache_hierarchy.iptw_caches.avgBlocked::no_mshrs          nan                       # average number of cycles each access was blocked ((Cycle/Count))
system.cache_hierarchy.iptw_caches.avgBlocked::no_targets          nan                       # average number of cycles each access was blocked ((Cycle/Count))
system.cache_hierarchy.iptw_caches.writebacks::writebacks         2378                       # number of writebacks (Count)
system.cache_hierarchy.iptw_caches.writebacks::total         2378                       # number of writebacks (Count)
system.cache_hierarchy.iptw_caches.demandMshrMisses::processor.cores.core.mmu.itb.walker         2431                       # number of demand (read+write) MSHR misses (Count)
system.cache_hierarchy.iptw_caches.demandMshrMisses::total         2431                       # number of demand (read+write) MSHR misses (Count)
system.cache_hierarchy.iptw_caches.overallMshrMisses::processor.cores.core.mmu.itb.walker         2431                       # number of overall MSHR misses (Count)
system.cache_hierarchy.iptw_caches.overallMshrMisses::total         2431                       # number of overall MSHR misses (Count)
system.cache_hierarchy.iptw_caches.demandMshrMissLatency::processor.cores.core.mmu.itb.walker     35589000                       # number of demand (read+write) MSHR miss ticks (Tick)
system.cache_hierarchy.iptw_caches.demandMshrMissLatency::total     35589000                       # number of demand (read+write) MSHR miss ticks (Tick)
system.cache_hierarchy.iptw_caches.overallMshrMissLatency::processor.cores.core.mmu.itb.walker     35589000                       # number of overall MSHR miss ticks (Tick)
system.cache_hierarchy.iptw_caches.overallMshrMissLatency::total     35589000                       # number of overall MSHR miss ticks (Tick)
system.cache_hierarchy.iptw_caches.demandMshrMissRate::processor.cores.core.mmu.itb.walker     0.113998                       # mshr miss ratio for demand accesses (Ratio)
system.cache_hierarchy.iptw_caches.demandMshrMissRate::total     0.113998                       # mshr miss ratio for demand accesses (Ratio)
system.cache_hierarchy.iptw_caches.overallMshrMissRate::processor.cores.core.mmu.itb.walker     0.113998                       # mshr miss ratio for overall accesses (Ratio)
system.cache_hierarchy.iptw_caches.overallMshrMissRate::total     0.113998                       # mshr miss ratio for overall accesses (Ratio)
system.cache_hierarchy.iptw_caches.demandAvgMshrMissLatency::processor.cores.core.mmu.itb.walker 14639.654463                       # average overall mshr miss latency ((Tick/Count))
system.cache_hierarchy.iptw_caches.demandAvgMshrMissLatency::total 14639.654463                       # average overall mshr miss latency ((Tick/Count))
system.cache_hierarchy.iptw_caches.overallAvgMshrMissLatency::processor.cores.core.mmu.itb.walker 14639.654463                       # average overall mshr miss latency ((Tick/Count))
system.cache_hierarchy.iptw_caches.overallAvgMshrMissLatency::total 14639.654463                       # average overall mshr miss latency ((Tick/Count))
system.cache_hierarchy.iptw_caches.replacements         2378                       # number of replacements (Count)
system.cache_hierarchy.iptw_caches.ReadReq.hits::processor.cores.core.mmu.itb.walker        18739                       # number of ReadReq hits (Count)
system.cache_hierarchy.iptw_caches.ReadReq.hits::total        18739                       # number of ReadReq hits (Count)
system.cache_hierarchy.iptw_caches.ReadReq.misses::processor.cores.core.mmu.itb.walker         2413                       # number of ReadReq misses (Count)
system.cache_hierarchy.iptw_caches.ReadReq.misses::total         2413                       # number of ReadReq misses (Count)
system.cache_hierarchy.iptw_caches.ReadReq.missLatency::processor.cores.core.mmu.itb.walker     37770000                       # number of ReadReq miss ticks (Tick)
system.cache_hierarchy.iptw_caches.ReadReq.missLatency::total     37770000                       # number of ReadReq miss ticks (Tick)
system.cache_hierarchy.iptw_caches.ReadReq.accesses::processor.cores.core.mmu.itb.walker        21152                       # number of ReadReq accesses(hits+misses) (Count)
system.cache_hierarchy.iptw_caches.ReadReq.accesses::total        21152                       # number of ReadReq accesses(hits+misses) (Count)
system.cache_hierarchy.iptw_caches.ReadReq.missRate::processor.cores.core.mmu.itb.walker     0.114079                       # miss rate for ReadReq accesses (Ratio)
system.cache_hierarchy.iptw_caches.ReadReq.missRate::total     0.114079                       # miss rate for ReadReq accesses (Ratio)
system.cache_hierarchy.iptw_caches.ReadReq.avgMissLatency::processor.cores.core.mmu.itb.walker 15652.714463                       # average ReadReq miss latency ((Tick/Count))
system.cache_hierarchy.iptw_caches.ReadReq.avgMissLatency::total 15652.714463                       # average ReadReq miss latency ((Tick/Count))
system.cache_hierarchy.iptw_caches.ReadReq.mshrMisses::processor.cores.core.mmu.itb.walker         2413                       # number of ReadReq MSHR misses (Count)
system.cache_hierarchy.iptw_caches.ReadReq.mshrMisses::total         2413                       # number of ReadReq MSHR misses (Count)
system.cache_hierarchy.iptw_caches.ReadReq.mshrMissLatency::processor.cores.core.mmu.itb.walker     35357000                       # number of ReadReq MSHR miss ticks (Tick)
system.cache_hierarchy.iptw_caches.ReadReq.mshrMissLatency::total     35357000                       # number of ReadReq MSHR miss ticks (Tick)
system.cache_hierarchy.iptw_caches.ReadReq.mshrMissRate::processor.cores.core.mmu.itb.walker     0.114079                       # mshr miss rate for ReadReq accesses (Ratio)
system.cache_hierarchy.iptw_caches.ReadReq.mshrMissRate::total     0.114079                       # mshr miss rate for ReadReq accesses (Ratio)
system.cache_hierarchy.iptw_caches.ReadReq.avgMshrMissLatency::processor.cores.core.mmu.itb.walker 14652.714463                       # average ReadReq mshr miss latency ((Tick/Count))
system.cache_hierarchy.iptw_caches.ReadReq.avgMshrMissLatency::total 14652.714463                       # average ReadReq mshr miss latency ((Tick/Count))
system.cache_hierarchy.iptw_caches.WriteReq.hits::processor.cores.core.mmu.itb.walker          155                       # number of WriteReq hits (Count)
system.cache_hierarchy.iptw_caches.WriteReq.hits::total          155                       # number of WriteReq hits (Count)
system.cache_hierarchy.iptw_caches.WriteReq.misses::processor.cores.core.mmu.itb.walker           18                       # number of WriteReq misses (Count)
system.cache_hierarchy.iptw_caches.WriteReq.misses::total           18                       # number of WriteReq misses (Count)
system.cache_hierarchy.iptw_caches.WriteReq.missLatency::processor.cores.core.mmu.itb.walker       250000                       # number of WriteReq miss ticks (Tick)
system.cache_hierarchy.iptw_caches.WriteReq.missLatency::total       250000                       # number of WriteReq miss ticks (Tick)
system.cache_hierarchy.iptw_caches.WriteReq.accesses::processor.cores.core.mmu.itb.walker          173                       # number of WriteReq accesses(hits+misses) (Count)
system.cache_hierarchy.iptw_caches.WriteReq.accesses::total          173                       # number of WriteReq accesses(hits+misses) (Count)
system.cache_hierarchy.iptw_caches.WriteReq.missRate::processor.cores.core.mmu.itb.walker     0.104046                       # miss rate for WriteReq accesses (Ratio)
system.cache_hierarchy.iptw_caches.WriteReq.missRate::total     0.104046                       # miss rate for WriteReq accesses (Ratio)
system.cache_hierarchy.iptw_caches.WriteReq.avgMissLatency::processor.cores.core.mmu.itb.walker 13888.888889                       # average WriteReq miss latency ((Tick/Count))
system.cache_hierarchy.iptw_caches.WriteReq.avgMissLatency::total 13888.888889                       # average WriteReq miss latency ((Tick/Count))
system.cache_hierarchy.iptw_caches.WriteReq.mshrMisses::processor.cores.core.mmu.itb.walker           18                       # number of WriteReq MSHR misses (Count)
system.cache_hierarchy.iptw_caches.WriteReq.mshrMisses::total           18                       # number of WriteReq MSHR misses (Count)
system.cache_hierarchy.iptw_caches.WriteReq.mshrMissLatency::processor.cores.core.mmu.itb.walker       232000                       # number of WriteReq MSHR miss ticks (Tick)
system.cache_hierarchy.iptw_caches.WriteReq.mshrMissLatency::total       232000                       # number of WriteReq MSHR miss ticks (Tick)
system.cache_hierarchy.iptw_caches.WriteReq.mshrMissRate::processor.cores.core.mmu.itb.walker     0.104046                       # mshr miss rate for WriteReq accesses (Ratio)
system.cache_hierarchy.iptw_caches.WriteReq.mshrMissRate::total     0.104046                       # mshr miss rate for WriteReq accesses (Ratio)
system.cache_hierarchy.iptw_caches.WriteReq.avgMshrMissLatency::processor.cores.core.mmu.itb.walker 12888.888889                       # average WriteReq mshr miss latency ((Tick/Count))
system.cache_hierarchy.iptw_caches.WriteReq.avgMshrMissLatency::total 12888.888889                       # average WriteReq mshr miss latency ((Tick/Count))
system.cache_hierarchy.iptw_caches.power_state.pwrStateResidencyTicks::UNDEFINED 285799798000                       # Cumulative time (in ticks) in various power states (Tick)
system.cache_hierarchy.iptw_caches.tags.tagsInUse    36.455896                       # Average ticks per tags in use ((Tick/Count))
system.cache_hierarchy.iptw_caches.tags.totalRefs        18650                       # Total number of references to valid blocks. (Count)
system.cache_hierarchy.iptw_caches.tags.sampledRefs         2388                       # Sample count of references to valid blocks. (Count)
system.cache_hierarchy.iptw_caches.tags.avgRefs     7.809883                       # Average number of references to valid blocks. ((Count/Count))
system.cache_hierarchy.iptw_caches.tags.warmupTick            0                       # The tick when the warmup percentage was hit. (Tick)
system.cache_hierarchy.iptw_caches.tags.occupancies::processor.cores.core.mmu.itb.walker    36.455896                       # Average occupied blocks per tick, per requestor ((Count/Tick))
system.cache_hierarchy.iptw_caches.tags.avgOccs::processor.cores.core.mmu.itb.walker     0.284812                       # Average percentage of cache occupancy ((Ratio/Tick))
system.cache_hierarchy.iptw_caches.tags.avgOccs::total     0.284812                       # Average percentage of cache occupancy ((Ratio/Tick))
system.cache_hierarchy.iptw_caches.tags.occupanciesTaskId::1024           37                       # Occupied blocks per task id (Count)
system.cache_hierarchy.iptw_caches.tags.ageTaskId_1024::1           10                       # Occupied blocks per task id, per block age (Count)
system.cache_hierarchy.iptw_caches.tags.ageTaskId_1024::4           27                       # Occupied blocks per task id, per block age (Count)
system.cache_hierarchy.iptw_caches.tags.ratioOccsTaskId::1024     0.289062                       # Ratio of occupied blocks and all blocks, per task id (Ratio)
system.cache_hierarchy.iptw_caches.tags.tagAccesses        87713                       # Number of tag accesses (Count)
system.cache_hierarchy.iptw_caches.tags.dataAccesses        87713                       # Number of data accesses (Count)
system.cache_hierarchy.iptw_caches.tags.power_state.pwrStateResidencyTicks::UNDEFINED 285799798000                       # Cumulative time (in ticks) in various power states (Tick)
system.cache_hierarchy.l1dcaches.demandHits::processor.cores.core.data     74008695                       # number of demand (read+write) hits (Count)
system.cache_hierarchy.l1dcaches.demandHits::total     74008695                       # number of demand (read+write) hits (Count)
system.cache_hierarchy.l1dcaches.overallHits::processor.cores.core.data     74008695                       # number of overall hits (Count)
system.cache_hierarchy.l1dcaches.overallHits::total     74008695                       # number of overall hits (Count)
system.cache_hierarchy.l1dcaches.demandMisses::processor.cores.core.data       315745                       # number of demand (read+write) misses (Count)
system.cache_hierarchy.l1dcaches.demandMisses::total       315745                       # number of demand (read+write) misses (Count)
system.cache_hierarchy.l1dcaches.overallMisses::processor.cores.core.data       315745                       # number of overall misses (Count)
system.cache_hierarchy.l1dcaches.overallMisses::total       315745                       # number of overall misses (Count)
system.cache_hierarchy.l1dcaches.demandMissLatency::processor.cores.core.data   4958284999                       # number of demand (read+write) miss ticks (Tick)
system.cache_hierarchy.l1dcaches.demandMissLatency::total   4958284999                       # number of demand (read+write) miss ticks (Tick)
system.cache_hierarchy.l1dcaches.overallMissLatency::processor.cores.core.data   4958284999                       # number of overall miss ticks (Tick)
system.cache_hierarchy.l1dcaches.overallMissLatency::total   4958284999                       # number of overall miss ticks (Tick)
system.cache_hierarchy.l1dcaches.demandAccesses::processor.cores.core.data     74324440                       # number of demand (read+write) accesses (Count)
system.cache_hierarchy.l1dcaches.demandAccesses::total     74324440                       # number of demand (read+write) accesses (Count)
system.cache_hierarchy.l1dcaches.overallAccesses::processor.cores.core.data     74324440                       # number of overall (read+write) accesses (Count)
system.cache_hierarchy.l1dcaches.overallAccesses::total     74324440                       # number of overall (read+write) accesses (Count)
system.cache_hierarchy.l1dcaches.demandMissRate::processor.cores.core.data     0.004248                       # miss rate for demand accesses (Ratio)
system.cache_hierarchy.l1dcaches.demandMissRate::total     0.004248                       # miss rate for demand accesses (Ratio)
system.cache_hierarchy.l1dcaches.overallMissRate::processor.cores.core.data     0.004248                       # miss rate for overall accesses (Ratio)
system.cache_hierarchy.l1dcaches.overallMissRate::total     0.004248                       # miss rate for overall accesses (Ratio)
system.cache_hierarchy.l1dcaches.demandAvgMissLatency::processor.cores.core.data 15703.447399                       # average overall miss latency in ticks ((Tick/Count))
system.cache_hierarchy.l1dcaches.demandAvgMissLatency::total 15703.447399                       # average overall miss latency in ticks ((Tick/Count))
system.cache_hierarchy.l1dcaches.overallAvgMissLatency::processor.cores.core.data 15703.447399                       # average overall miss latency ((Tick/Count))
system.cache_hierarchy.l1dcaches.overallAvgMissLatency::total 15703.447399                       # average overall miss latency ((Tick/Count))
system.cache_hierarchy.l1dcaches.blockedCycles::no_mshrs          336                       # number of cycles access was blocked (Cycle)
system.cache_hierarchy.l1dcaches.blockedCycles::no_targets        65770                       # number of cycles access was blocked (Cycle)
system.cache_hierarchy.l1dcaches.blockedCauses::no_mshrs           99                       # number of times access was blocked (Count)
system.cache_hierarchy.l1dcaches.blockedCauses::no_targets        12404                       # number of times access was blocked (Count)
system.cache_hierarchy.l1dcaches.avgBlocked::no_mshrs     3.393939                       # average number of cycles each access was blocked ((Cycle/Count))
system.cache_hierarchy.l1dcaches.avgBlocked::no_targets     5.302322                       # average number of cycles each access was blocked ((Cycle/Count))
system.cache_hierarchy.l1dcaches.writebacks::writebacks        32888                       # number of writebacks (Count)
system.cache_hierarchy.l1dcaches.writebacks::total        32888                       # number of writebacks (Count)
system.cache_hierarchy.l1dcaches.demandMshrHits::processor.cores.core.data       283445                       # number of demand (read+write) MSHR hits (Count)
system.cache_hierarchy.l1dcaches.demandMshrHits::total       283445                       # number of demand (read+write) MSHR hits (Count)
system.cache_hierarchy.l1dcaches.overallMshrHits::processor.cores.core.data       283445                       # number of overall MSHR hits (Count)
system.cache_hierarchy.l1dcaches.overallMshrHits::total       283445                       # number of overall MSHR hits (Count)
system.cache_hierarchy.l1dcaches.demandMshrMisses::processor.cores.core.data        32300                       # number of demand (read+write) MSHR misses (Count)
system.cache_hierarchy.l1dcaches.demandMshrMisses::total        32300                       # number of demand (read+write) MSHR misses (Count)
system.cache_hierarchy.l1dcaches.overallMshrMisses::cache_hierarchy.l1dcaches.prefetcher        14224                       # number of overall MSHR misses (Count)
system.cache_hierarchy.l1dcaches.overallMshrMisses::processor.cores.core.data        32300                       # number of overall MSHR misses (Count)
system.cache_hierarchy.l1dcaches.overallMshrMisses::total        46524                       # number of overall MSHR misses (Count)
system.cache_hierarchy.l1dcaches.overallMshrUncacheable::processor.cores.core.data         6777                       # number of overall MSHR uncacheable misses (Count)
system.cache_hierarchy.l1dcaches.overallMshrUncacheable::total         6777                       # number of overall MSHR uncacheable misses (Count)
system.cache_hierarchy.l1dcaches.demandMshrMissLatency::processor.cores.core.data    641471000                       # number of demand (read+write) MSHR miss ticks (Tick)
system.cache_hierarchy.l1dcaches.demandMshrMissLatency::total    641471000                       # number of demand (read+write) MSHR miss ticks (Tick)
system.cache_hierarchy.l1dcaches.overallMshrMissLatency::cache_hierarchy.l1dcaches.prefetcher    299108382                       # number of overall MSHR miss ticks (Tick)
system.cache_hierarchy.l1dcaches.overallMshrMissLatency::processor.cores.core.data    641471000                       # number of overall MSHR miss ticks (Tick)
system.cache_hierarchy.l1dcaches.overallMshrMissLatency::total    940579382                       # number of overall MSHR miss ticks (Tick)
system.cache_hierarchy.l1dcaches.overallMshrUncacheableLatency::processor.cores.core.data    215935000                       # number of overall MSHR uncacheable ticks (Tick)
system.cache_hierarchy.l1dcaches.overallMshrUncacheableLatency::total    215935000                       # number of overall MSHR uncacheable ticks (Tick)
system.cache_hierarchy.l1dcaches.demandMshrMissRate::processor.cores.core.data     0.000435                       # mshr miss ratio for demand accesses (Ratio)
system.cache_hierarchy.l1dcaches.demandMshrMissRate::total     0.000435                       # mshr miss ratio for demand accesses (Ratio)
system.cache_hierarchy.l1dcaches.overallMshrMissRate::cache_hierarchy.l1dcaches.prefetcher          inf                       # mshr miss ratio for overall accesses (Ratio)
system.cache_hierarchy.l1dcaches.overallMshrMissRate::processor.cores.core.data     0.000435                       # mshr miss ratio for overall accesses (Ratio)
system.cache_hierarchy.l1dcaches.overallMshrMissRate::total     0.000626                       # mshr miss ratio for overall accesses (Ratio)
system.cache_hierarchy.l1dcaches.demandAvgMshrMissLatency::processor.cores.core.data 19859.783282                       # average overall mshr miss latency ((Tick/Count))
system.cache_hierarchy.l1dcaches.demandAvgMshrMissLatency::total 19859.783282                       # average overall mshr miss latency ((Tick/Count))
system.cache_hierarchy.l1dcaches.overallAvgMshrMissLatency::cache_hierarchy.l1dcaches.prefetcher 21028.429556                       # average overall mshr miss latency ((Tick/Count))
system.cache_hierarchy.l1dcaches.overallAvgMshrMissLatency::processor.cores.core.data 19859.783282                       # average overall mshr miss latency ((Tick/Count))
system.cache_hierarchy.l1dcaches.overallAvgMshrMissLatency::total 20217.078970                       # average overall mshr miss latency ((Tick/Count))
system.cache_hierarchy.l1dcaches.overallAvgMshrUncacheableLatency::processor.cores.core.data 31862.918696                       # average overall mshr uncacheable latency ((Tick/Count))
system.cache_hierarchy.l1dcaches.overallAvgMshrUncacheableLatency::total 31862.918696                       # average overall mshr uncacheable latency ((Tick/Count))
system.cache_hierarchy.l1dcaches.replacements        32888                       # number of replacements (Count)
system.cache_hierarchy.l1dcaches.HardPFReq.mshrMisses::cache_hierarchy.l1dcaches.prefetcher        14224                       # number of HardPFReq MSHR misses (Count)
system.cache_hierarchy.l1dcaches.HardPFReq.mshrMisses::total        14224                       # number of HardPFReq MSHR misses (Count)
system.cache_hierarchy.l1dcaches.HardPFReq.mshrMissLatency::cache_hierarchy.l1dcaches.prefetcher    299108382                       # number of HardPFReq MSHR miss ticks (Tick)
system.cache_hierarchy.l1dcaches.HardPFReq.mshrMissLatency::total    299108382                       # number of HardPFReq MSHR miss ticks (Tick)
system.cache_hierarchy.l1dcaches.HardPFReq.mshrMissRate::cache_hierarchy.l1dcaches.prefetcher          inf                       # mshr miss rate for HardPFReq accesses (Ratio)
system.cache_hierarchy.l1dcaches.HardPFReq.mshrMissRate::total          inf                       # mshr miss rate for HardPFReq accesses (Ratio)
system.cache_hierarchy.l1dcaches.HardPFReq.avgMshrMissLatency::cache_hierarchy.l1dcaches.prefetcher 21028.429556                       # average HardPFReq mshr miss latency ((Tick/Count))
system.cache_hierarchy.l1dcaches.HardPFReq.avgMshrMissLatency::total 21028.429556                       # average HardPFReq mshr miss latency ((Tick/Count))
system.cache_hierarchy.l1dcaches.ReadReq.hits::processor.cores.core.data     34461385                       # number of ReadReq hits (Count)
system.cache_hierarchy.l1dcaches.ReadReq.hits::total     34461385                       # number of ReadReq hits (Count)
system.cache_hierarchy.l1dcaches.ReadReq.misses::processor.cores.core.data        46708                       # number of ReadReq misses (Count)
system.cache_hierarchy.l1dcaches.ReadReq.misses::total        46708                       # number of ReadReq misses (Count)
system.cache_hierarchy.l1dcaches.ReadReq.missLatency::processor.cores.core.data    648236000                       # number of ReadReq miss ticks (Tick)
system.cache_hierarchy.l1dcaches.ReadReq.missLatency::total    648236000                       # number of ReadReq miss ticks (Tick)
system.cache_hierarchy.l1dcaches.ReadReq.accesses::processor.cores.core.data     34508093                       # number of ReadReq accesses(hits+misses) (Count)
system.cache_hierarchy.l1dcaches.ReadReq.accesses::total     34508093                       # number of ReadReq accesses(hits+misses) (Count)
system.cache_hierarchy.l1dcaches.ReadReq.missRate::processor.cores.core.data     0.001354                       # miss rate for ReadReq accesses (Ratio)
system.cache_hierarchy.l1dcaches.ReadReq.missRate::total     0.001354                       # miss rate for ReadReq accesses (Ratio)
system.cache_hierarchy.l1dcaches.ReadReq.avgMissLatency::processor.cores.core.data 13878.479061                       # average ReadReq miss latency ((Tick/Count))
system.cache_hierarchy.l1dcaches.ReadReq.avgMissLatency::total 13878.479061                       # average ReadReq miss latency ((Tick/Count))
system.cache_hierarchy.l1dcaches.ReadReq.mshrHits::processor.cores.core.data        31376                       # number of ReadReq MSHR hits (Count)
system.cache_hierarchy.l1dcaches.ReadReq.mshrHits::total        31376                       # number of ReadReq MSHR hits (Count)
system.cache_hierarchy.l1dcaches.ReadReq.mshrMisses::processor.cores.core.data        15332                       # number of ReadReq MSHR misses (Count)
system.cache_hierarchy.l1dcaches.ReadReq.mshrMisses::total        15332                       # number of ReadReq MSHR misses (Count)
system.cache_hierarchy.l1dcaches.ReadReq.mshrUncacheable::processor.cores.core.data         2377                       # number of ReadReq MSHR uncacheable (Count)
system.cache_hierarchy.l1dcaches.ReadReq.mshrUncacheable::total         2377                       # number of ReadReq MSHR uncacheable (Count)
system.cache_hierarchy.l1dcaches.ReadReq.mshrMissLatency::processor.cores.core.data    241470000                       # number of ReadReq MSHR miss ticks (Tick)
system.cache_hierarchy.l1dcaches.ReadReq.mshrMissLatency::total    241470000                       # number of ReadReq MSHR miss ticks (Tick)
system.cache_hierarchy.l1dcaches.ReadReq.mshrUncacheableLatency::processor.cores.core.data    215935000                       # number of ReadReq MSHR uncacheable ticks (Tick)
system.cache_hierarchy.l1dcaches.ReadReq.mshrUncacheableLatency::total    215935000                       # number of ReadReq MSHR uncacheable ticks (Tick)
system.cache_hierarchy.l1dcaches.ReadReq.mshrMissRate::processor.cores.core.data     0.000444                       # mshr miss rate for ReadReq accesses (Ratio)
system.cache_hierarchy.l1dcaches.ReadReq.mshrMissRate::total     0.000444                       # mshr miss rate for ReadReq accesses (Ratio)
system.cache_hierarchy.l1dcaches.ReadReq.avgMshrMissLatency::processor.cores.core.data 15749.412992                       # average ReadReq mshr miss latency ((Tick/Count))
system.cache_hierarchy.l1dcaches.ReadReq.avgMshrMissLatency::total 15749.412992                       # average ReadReq mshr miss latency ((Tick/Count))
system.cache_hierarchy.l1dcaches.ReadReq.avgMshrUncacheableLatency::processor.cores.core.data 90843.500210                       # average ReadReq mshr uncacheable latency ((Tick/Count))
system.cache_hierarchy.l1dcaches.ReadReq.avgMshrUncacheableLatency::total 90843.500210                       # average ReadReq mshr uncacheable latency ((Tick/Count))
system.cache_hierarchy.l1dcaches.SwapReq.hits::processor.cores.core.data      1120507                       # number of SwapReq hits (Count)
system.cache_hierarchy.l1dcaches.SwapReq.hits::total      1120507                       # number of SwapReq hits (Count)
system.cache_hierarchy.l1dcaches.SwapReq.misses::processor.cores.core.data          263                       # number of SwapReq misses (Count)
system.cache_hierarchy.l1dcaches.SwapReq.misses::total          263                       # number of SwapReq misses (Count)
system.cache_hierarchy.l1dcaches.SwapReq.missLatency::processor.cores.core.data     15199000                       # number of SwapReq miss ticks (Tick)
system.cache_hierarchy.l1dcaches.SwapReq.missLatency::total     15199000                       # number of SwapReq miss ticks (Tick)
system.cache_hierarchy.l1dcaches.SwapReq.accesses::processor.cores.core.data      1120770                       # number of SwapReq accesses(hits+misses) (Count)
system.cache_hierarchy.l1dcaches.SwapReq.accesses::total      1120770                       # number of SwapReq accesses(hits+misses) (Count)
system.cache_hierarchy.l1dcaches.SwapReq.missRate::processor.cores.core.data     0.000235                       # miss rate for SwapReq accesses (Ratio)
system.cache_hierarchy.l1dcaches.SwapReq.missRate::total     0.000235                       # miss rate for SwapReq accesses (Ratio)
system.cache_hierarchy.l1dcaches.SwapReq.avgMissLatency::processor.cores.core.data 57790.874525                       # average SwapReq miss latency ((Tick/Count))
system.cache_hierarchy.l1dcaches.SwapReq.avgMissLatency::total 57790.874525                       # average SwapReq miss latency ((Tick/Count))
system.cache_hierarchy.l1dcaches.SwapReq.mshrMisses::processor.cores.core.data          263                       # number of SwapReq MSHR misses (Count)
system.cache_hierarchy.l1dcaches.SwapReq.mshrMisses::total          263                       # number of SwapReq MSHR misses (Count)
system.cache_hierarchy.l1dcaches.SwapReq.mshrMissLatency::processor.cores.core.data     14936000                       # number of SwapReq MSHR miss ticks (Tick)
system.cache_hierarchy.l1dcaches.SwapReq.mshrMissLatency::total     14936000                       # number of SwapReq MSHR miss ticks (Tick)
system.cache_hierarchy.l1dcaches.SwapReq.mshrMissRate::processor.cores.core.data     0.000235                       # mshr miss rate for SwapReq accesses (Ratio)
system.cache_hierarchy.l1dcaches.SwapReq.mshrMissRate::total     0.000235                       # mshr miss rate for SwapReq accesses (Ratio)
system.cache_hierarchy.l1dcaches.SwapReq.avgMshrMissLatency::processor.cores.core.data 56790.874525                       # average SwapReq mshr miss latency ((Tick/Count))
system.cache_hierarchy.l1dcaches.SwapReq.avgMshrMissLatency::total 56790.874525                       # average SwapReq mshr miss latency ((Tick/Count))
system.cache_hierarchy.l1dcaches.WriteReq.hits::processor.cores.core.data     39547310                       # number of WriteReq hits (Count)
system.cache_hierarchy.l1dcaches.WriteReq.hits::total     39547310                       # number of WriteReq hits (Count)
system.cache_hierarchy.l1dcaches.WriteReq.misses::processor.cores.core.data       269037                       # number of WriteReq misses (Count)
system.cache_hierarchy.l1dcaches.WriteReq.misses::total       269037                       # number of WriteReq misses (Count)
system.cache_hierarchy.l1dcaches.WriteReq.missLatency::processor.cores.core.data   4310048999                       # number of WriteReq miss ticks (Tick)
system.cache_hierarchy.l1dcaches.WriteReq.missLatency::total   4310048999                       # number of WriteReq miss ticks (Tick)
system.cache_hierarchy.l1dcaches.WriteReq.accesses::processor.cores.core.data     39816347                       # number of WriteReq accesses(hits+misses) (Count)
system.cache_hierarchy.l1dcaches.WriteReq.accesses::total     39816347                       # number of WriteReq accesses(hits+misses) (Count)
system.cache_hierarchy.l1dcaches.WriteReq.missRate::processor.cores.core.data     0.006757                       # miss rate for WriteReq accesses (Ratio)
system.cache_hierarchy.l1dcaches.WriteReq.missRate::total     0.006757                       # miss rate for WriteReq accesses (Ratio)
system.cache_hierarchy.l1dcaches.WriteReq.avgMissLatency::processor.cores.core.data 16020.283452                       # average WriteReq miss latency ((Tick/Count))
system.cache_hierarchy.l1dcaches.WriteReq.avgMissLatency::total 16020.283452                       # average WriteReq miss latency ((Tick/Count))
system.cache_hierarchy.l1dcaches.WriteReq.mshrHits::processor.cores.core.data       252069                       # number of WriteReq MSHR hits (Count)
system.cache_hierarchy.l1dcaches.WriteReq.mshrHits::total       252069                       # number of WriteReq MSHR hits (Count)
system.cache_hierarchy.l1dcaches.WriteReq.mshrMisses::processor.cores.core.data        16968                       # number of WriteReq MSHR misses (Count)
system.cache_hierarchy.l1dcaches.WriteReq.mshrMisses::total        16968                       # number of WriteReq MSHR misses (Count)
system.cache_hierarchy.l1dcaches.WriteReq.mshrUncacheable::processor.cores.core.data         4400                       # number of WriteReq MSHR uncacheable (Count)
system.cache_hierarchy.l1dcaches.WriteReq.mshrUncacheable::total         4400                       # number of WriteReq MSHR uncacheable (Count)
system.cache_hierarchy.l1dcaches.WriteReq.mshrMissLatency::processor.cores.core.data    400001000                       # number of WriteReq MSHR miss ticks (Tick)
system.cache_hierarchy.l1dcaches.WriteReq.mshrMissLatency::total    400001000                       # number of WriteReq MSHR miss ticks (Tick)
system.cache_hierarchy.l1dcaches.WriteReq.mshrMissRate::processor.cores.core.data     0.000426                       # mshr miss rate for WriteReq accesses (Ratio)
system.cache_hierarchy.l1dcaches.WriteReq.mshrMissRate::total     0.000426                       # mshr miss rate for WriteReq accesses (Ratio)
system.cache_hierarchy.l1dcaches.WriteReq.avgMshrMissLatency::processor.cores.core.data 23573.844884                       # average WriteReq mshr miss latency ((Tick/Count))
system.cache_hierarchy.l1dcaches.WriteReq.avgMshrMissLatency::total 23573.844884                       # average WriteReq mshr miss latency ((Tick/Count))
system.cache_hierarchy.l1dcaches.power_state.pwrStateResidencyTicks::UNDEFINED 285799798000                       # Cumulative time (in ticks) in various power states (Tick)
system.cache_hierarchy.l1dcaches.prefetcher.demandMshrMisses        32300                       # demands not covered by prefetchs (Count)
system.cache_hierarchy.l1dcaches.prefetcher.pfIssued       656444                       # number of hwpf issued (Count)
system.cache_hierarchy.l1dcaches.prefetcher.pfUnused         2230                       # number of HardPF blocks evicted w/o reference (Count)
system.cache_hierarchy.l1dcaches.prefetcher.pfUseful       120379                       # number of useful prefetch (Count)
system.cache_hierarchy.l1dcaches.prefetcher.pfUsefulButMiss       108919                       # number of hit on prefetch but cache block is not in an usable state (Count)
system.cache_hierarchy.l1dcaches.prefetcher.accuracy     0.183380                       # accuracy of the prefetcher (Count)
system.cache_hierarchy.l1dcaches.prefetcher.coverage     0.788445                       # coverage brought by this prefetcher (Count)
system.cache_hierarchy.l1dcaches.prefetcher.pfHitInCache       581687                       # number of prefetches hitting in cache (Count)
system.cache_hierarchy.l1dcaches.prefetcher.pfHitInMSHR        60533                       # number of prefetches hitting in a MSHR (Count)
system.cache_hierarchy.l1dcaches.prefetcher.pfHitInWB            0                       # number of prefetches hit in the Write Buffer (Count)
system.cache_hierarchy.l1dcaches.prefetcher.pfLate       642220                       # number of late prefetches (hitting in cache, MSHR or WB) (Count)
system.cache_hierarchy.l1dcaches.prefetcher.pfIdentified      1086757                       # number of prefetch candidates identified (Count)
system.cache_hierarchy.l1dcaches.prefetcher.pfBufferHit       404457                       # number of redundant prefetches already in prefetch queue (Count)
system.cache_hierarchy.l1dcaches.prefetcher.pfInCache            0                       # number of redundant prefetches already in cache/mshr dropped (Count)
system.cache_hierarchy.l1dcaches.prefetcher.pfRemovedDemand          774                       # number of prefetches dropped due to a demand for the same address (Count)
system.cache_hierarchy.l1dcaches.prefetcher.pfRemovedFull            0                       # number of prefetches dropped due to prefetch queue size (Count)
system.cache_hierarchy.l1dcaches.prefetcher.pfSpanPage        51935                       # number of prefetches that crossed the page (Count)
system.cache_hierarchy.l1dcaches.prefetcher.pfUsefulSpanPage        18740                       # number of prefetches that is useful and crossed the page (Count)
system.cache_hierarchy.l1dcaches.prefetcher.power_state.pwrStateResidencyTicks::UNDEFINED 285799798000                       # Cumulative time (in ticks) in various power states (Tick)
system.cache_hierarchy.l1dcaches.tags.tagsInUse   511.976025                       # Average ticks per tags in use ((Tick/Count))
system.cache_hierarchy.l1dcaches.tags.totalRefs     86117219                       # Total number of references to valid blocks. (Count)
system.cache_hierarchy.l1dcaches.tags.sampledRefs        33018                       # Sample count of references to valid blocks. (Count)
system.cache_hierarchy.l1dcaches.tags.avgRefs  2608.190048                       # Average number of references to valid blocks. ((Count/Count))
system.cache_hierarchy.l1dcaches.tags.warmupTick            0                       # The tick when the warmup percentage was hit. (Tick)
system.cache_hierarchy.l1dcaches.tags.occupancies::cache_hierarchy.l1dcaches.prefetcher   187.204284                       # Average occupied blocks per tick, per requestor ((Count/Tick))
system.cache_hierarchy.l1dcaches.tags.occupancies::processor.cores.core.data   324.771741                       # Average occupied blocks per tick, per requestor ((Count/Tick))
system.cache_hierarchy.l1dcaches.tags.avgOccs::cache_hierarchy.l1dcaches.prefetcher     0.365633                       # Average percentage of cache occupancy ((Ratio/Tick))
system.cache_hierarchy.l1dcaches.tags.avgOccs::processor.cores.core.data     0.634320                       # Average percentage of cache occupancy ((Ratio/Tick))
system.cache_hierarchy.l1dcaches.tags.avgOccs::total     0.999953                       # Average percentage of cache occupancy ((Ratio/Tick))
system.cache_hierarchy.l1dcaches.tags.occupanciesTaskId::1022           87                       # Occupied blocks per task id (Count)
system.cache_hierarchy.l1dcaches.tags.occupanciesTaskId::1024          425                       # Occupied blocks per task id (Count)
system.cache_hierarchy.l1dcaches.tags.ageTaskId_1022::1           12                       # Occupied blocks per task id, per block age (Count)
system.cache_hierarchy.l1dcaches.tags.ageTaskId_1022::2           21                       # Occupied blocks per task id, per block age (Count)
system.cache_hierarchy.l1dcaches.tags.ageTaskId_1022::3           45                       # Occupied blocks per task id, per block age (Count)
system.cache_hierarchy.l1dcaches.tags.ageTaskId_1022::4            9                       # Occupied blocks per task id, per block age (Count)
system.cache_hierarchy.l1dcaches.tags.ageTaskId_1024::0           60                       # Occupied blocks per task id, per block age (Count)
system.cache_hierarchy.l1dcaches.tags.ageTaskId_1024::1          182                       # Occupied blocks per task id, per block age (Count)
system.cache_hierarchy.l1dcaches.tags.ageTaskId_1024::2            4                       # Occupied blocks per task id, per block age (Count)
system.cache_hierarchy.l1dcaches.tags.ageTaskId_1024::3          130                       # Occupied blocks per task id, per block age (Count)
system.cache_hierarchy.l1dcaches.tags.ageTaskId_1024::4           49                       # Occupied blocks per task id, per block age (Count)
system.cache_hierarchy.l1dcaches.tags.ratioOccsTaskId::1022     0.169922                       # Ratio of occupied blocks and all blocks, per task id (Ratio)
system.cache_hierarchy.l1dcaches.tags.ratioOccsTaskId::1024     0.830078                       # Ratio of occupied blocks and all blocks, per task id (Ratio)
system.cache_hierarchy.l1dcaches.tags.tagAccesses    603594700                       # Number of tag accesses (Count)
system.cache_hierarchy.l1dcaches.tags.dataAccesses    603594700                       # Number of data accesses (Count)
system.cache_hierarchy.l1dcaches.tags.power_state.pwrStateResidencyTicks::UNDEFINED 285799798000                       # Cumulative time (in ticks) in various power states (Tick)
system.cache_hierarchy.l1icaches.demandHits::processor.cores.core.inst     58019757                       # number of demand (read+write) hits (Count)
system.cache_hierarchy.l1icaches.demandHits::total     58019757                       # number of demand (read+write) hits (Count)
system.cache_hierarchy.l1icaches.overallHits::processor.cores.core.inst     58019757                       # number of overall hits (Count)
system.cache_hierarchy.l1icaches.overallHits::total     58019757                       # number of overall hits (Count)
system.cache_hierarchy.l1icaches.demandMisses::processor.cores.core.inst        35621                       # number of demand (read+write) misses (Count)
[...]
system.processor.cores.core.fetch.predictedBranches     45689834                       # Number of branches that fetch has predicted taken (Count)
system.processor.cores.core.fetch.cycles    165779132                       # Number of cycles fetch has run and was not squashing or blocked (Cycle)
system.processor.cores.core.fetch.squashCycles      2677768                       # Number of cycles fetch has spent squashing (Cycle)
system.processor.cores.core.fetch.tlbCycles        36239                       # Number of cycles fetch has spent waiting for tlb (Cycle)
system.processor.cores.core.fetch.miscStallCycles        31985                       # Number of cycles fetch has spent waiting on interrupts, or bad addresses, or out of MSHRs (Cycle)
system.processor.cores.core.fetch.pendingTrapStallCycles        35985                       # Number of stall cycles due to pending traps (Cycle)
system.processor.cores.core.fetch.cacheLines     58055378                       # Number of cache lines fetched (Count)
system.processor.cores.core.fetch.icacheSquashes        16203                       # Number of outstanding Icache misses that were squashed (Count)
system.processor.cores.core.fetch.tlbSquashes          767                       # Number of outstanding ITLB misses that were squashed (Count)
system.processor.cores.core.fetch.nisnDist::samples    168847624                       # Number of instructions fetched each cycle (Total) (Count)
system.processor.cores.core.fetch.nisnDist::mean     2.125158                       # Number of instructions fetched each cycle (Total) (Count)
system.processor.cores.core.fetch.nisnDist::stdev     2.896066                       # Number of instructions fetched each cycle (Total) (Count)
system.processor.cores.core.fetch.nisnDist::underflows            0      0.00%      0.00% # Number of instructions fetched each cycle (Total) (Count)
system.processor.cores.core.fetch.nisnDist::0     93837052     55.57%     55.57% # Number of instructions fetched each cycle (Total) (Count)
system.processor.cores.core.fetch.nisnDist::1      9606819      5.69%     61.26% # Number of instructions fetched each cycle (Total) (Count)
system.processor.cores.core.fetch.nisnDist::2      9206278      5.45%     66.72% # Number of instructions fetched each cycle (Total) (Count)
system.processor.cores.core.fetch.nisnDist::3      5031530      2.98%     69.70% # Number of instructions fetched each cycle (Total) (Count)
system.processor.cores.core.fetch.nisnDist::4     13345726      7.90%     77.60% # Number of instructions fetched each cycle (Total) (Count)
system.processor.cores.core.fetch.nisnDist::5      5793933      3.43%     81.03% # Number of instructions fetched each cycle (Total) (Count)
system.processor.cores.core.fetch.nisnDist::6     10840818      6.42%     87.45% # Number of instructions fetched each cycle (Total) (Count)
system.processor.cores.core.fetch.nisnDist::7      1167368      0.69%     88.14% # Number of instructions fetched each cycle (Total) (Count)
system.processor.cores.core.fetch.nisnDist::8     20018100     11.86%    100.00% # Number of instructions fetched each cycle (Total) (Count)
system.processor.cores.core.fetch.nisnDist::overflows            0      0.00%    100.00% # Number of instructions fetched each cycle (Total) (Count)
system.processor.cores.core.fetch.nisnDist::min_value            0                       # Number of instructions fetched each cycle (Total) (Count)
system.processor.cores.core.fetch.nisnDist::max_value            8                       # Number of instructions fetched each cycle (Total) (Count)
system.processor.cores.core.fetch.nisnDist::total    168847624                       # Number of instructions fetched each cycle (Total) (Count)
system.processor.cores.core.fetch.branchRate     0.332087                       # Number of branch fetches per cycle (Ratio)
system.processor.cores.core.fetch.rate       2.120029                       # Number of inst fetches per cycle ((Count/Cycle))
system.processor.cores.core.iew.idleCycles            0                       # Number of cycles IEW is idle (Cycle)
system.processor.cores.core.iew.squashCycles      1328183                       # Number of cycles IEW is squashing (Cycle)
system.processor.cores.core.iew.blockCycles      5716853                       # Number of cycles IEW is blocking (Cycle)
system.processor.cores.core.iew.unblockCycles        14333                       # Number of cycles IEW is unblocking (Cycle)
system.processor.cores.core.iew.dispatchedInsts    297441512                       # Number of instructions dispatched to IQ (Count)
system.processor.cores.core.iew.dispSquashedInsts        17830                       # Number of squashed instructions skipped by dispatch (Count)
system.processor.cores.core.iew.dispLoadInsts     58140014                       # Number of dispatched load instructions (Count)
system.processor.cores.core.iew.dispStoreInsts     48569390                       # Number of dispatched store instructions (Count)
system.processor.cores.core.iew.dispNonSpecInsts      7413347                       # Number of dispatched non-speculative instructions (Count)
system.processor.cores.core.iew.iqFullEvents         2717                       # Number of times the IQ has become full, causing a stall (Count)
system.processor.cores.core.iew.lsqFullEvents         8668                       # Number of times the LSQ has become full, causing a stall (Count)
system.processor.cores.core.iew.memOrderViolationEvents      1152145                       # Number of memory order violations (Count)
system.processor.cores.core.iew.predictedTakenIncorrect        90722                       # Number of branches that were predicted taken incorrectly (Count)
system.processor.cores.core.iew.predictedNotTakenIncorrect       169705                       # Number of branches that were predicted not taken incorrectly (Count)
system.processor.cores.core.iew.branchMispredicts       260427                       # Number of branch mispredicts detected at execute (Count)
system.processor.cores.core.iew.instsToCommit    279773981                       # Cumulative count of insts sent to commit (Count)
system.processor.cores.core.iew.writebackCount    279652164                       # Cumulative count of insts written-back (Count)
system.processor.cores.core.iew.producerInst    178347262                       # Number of instructions producing a value (Count)
system.processor.cores.core.iew.consumerInst    269782721                       # Number of instructions consuming a value (Count)
system.processor.cores.core.iew.wbRate       1.654901                       # Insts written-back per cycle ((Count/Cycle))
system.processor.cores.core.iew.wbFanout     0.661077                       # Average fanout of values written-back ((Count/Count))
system.processor.cores.core.lsq0.forwLoads     18904862                       # Number of loads that had data forwarded from stores (Count)
system.processor.cores.core.lsq0.squashedLoads     12552362                       # Number of loads squashed (Count)
system.processor.cores.core.lsq0.ignoredResponses         1635                       # Number of memory responses ignored because the instruction is squashed (Count)
system.processor.cores.core.lsq0.memOrderViolation      1152145                       # Number of memory ordering violations (Count)
system.processor.cores.core.lsq0.squashedStores      7627873                       # Number of stores squashed (Count)
system.processor.cores.core.lsq0.rescheduledLoads         7483                       # Number of loads that were rescheduled (Count)
system.processor.cores.core.lsq0.blockedByCache        12451                       # Number of times an access to memory failed due to the cache being blocked (Count)
system.processor.cores.core.lsq0.loadToUse::samples     45587652                       # Distribution of cycle latency between the first time a load is issued and its completion (Unspecified)
system.processor.cores.core.lsq0.loadToUse::mean     2.298954                       # Distribution of cycle latency between the first time a load is issued and its completion (Unspecified)
system.processor.cores.core.lsq0.loadToUse::stdev     1.145130                       # Distribution of cycle latency between the first time a load is issued and its completion (Unspecified)
system.processor.cores.core.lsq0.loadToUse::0-9     45546351     99.91%     99.91% # Distribution of cycle latency between the first time a load is issued and its completion (Unspecified)
system.processor.cores.core.lsq0.loadToUse::10-19        32496      0.07%     99.98% # Distribution of cycle latency between the first time a load is issued and its completion (Unspecified)
system.processor.cores.core.lsq0.loadToUse::20-29         2116      0.00%     99.99% # Distribution of cycle latency between the first time a load is issued and its completion (Unspecified)
system.processor.cores.core.lsq0.loadToUse::30-39          789      0.00%     99.99% # Distribution of cycle latency between the first time a load is issued and its completion (Unspecified)
system.processor.cores.core.lsq0.loadToUse::40-49          675      0.00%     99.99% # Distribution of cycle latency between the first time a load is issued and its completion (Unspecified)
system.processor.cores.core.lsq0.loadToUse::50-59         1762      0.00%     99.99% # Distribution of cycle latency between the first time a load is issued and its completion (Unspecified)
system.processor.cores.core.lsq0.loadToUse::60-69         1620      0.00%    100.00% # Distribution of cycle latency between the first time a load is issued and its completion (Unspecified)
system.processor.cores.core.lsq0.loadToUse::70-79          396      0.00%    100.00% # Distribution of cycle latency between the first time a load is issued and its completion (Unspecified)
system.processor.cores.core.lsq0.loadToUse::80-89           47      0.00%    100.00% # Distribution of cycle latency between the first time a load is issued and its completion (Unspecified)
system.processor.cores.core.lsq0.loadToUse::90-99           17      0.00%    100.00% # Distribution of cycle latency between the first time a load is issued and its completion (Unspecified)
system.processor.cores.core.lsq0.loadToUse::100-109            5      0.00%    100.00% # Distribution of cycle latency between the first time a load is issued and its completion (Unspecified)
system.processor.cores.core.lsq0.loadToUse::110-119           15      0.00%    100.00% # Distribution of cycle latency between the first time a load is issued and its completion (Unspecified)
system.processor.cores.core.lsq0.loadToUse::120-129            3      0.00%    100.00% # Distribution of cycle latency between the first time a load is issued and its completion (Unspecified)
system.processor.cores.core.lsq0.loadToUse::130-139         1201      0.00%    100.00% # Distribution of cycle latency between the first time a load is issued and its completion (Unspecified)
system.processor.cores.core.lsq0.loadToUse::140-149           19      0.00%    100.00% # Distribution of cycle latency between the first time a load is issued and its completion (Unspecified)
system.processor.cores.core.lsq0.loadToUse::150-159           20      0.00%    100.00% # Distribution of cycle latency between the first time a load is issued and its completion (Unspecified)
system.processor.cores.core.lsq0.loadToUse::160-169           68      0.00%    100.00% # Distribution of cycle latency between the first time a load is issued and its completion (Unspecified)
system.processor.cores.core.lsq0.loadToUse::170-179            1      0.00%    100.00% # Distribution of cycle latency between the first time a load is issued and its completion (Unspecified)
system.processor.cores.core.lsq0.loadToUse::180-189           12      0.00%    100.00% # Distribution of cycle latency between the first time a load is issued and its completion (Unspecified)
system.processor.cores.core.lsq0.loadToUse::200-209            7      0.00%    100.00% # Distribution of cycle latency between the first time a load is issued and its completion (Unspecified)
system.processor.cores.core.lsq0.loadToUse::250-259            2      0.00%    100.00% # Distribution of cycle latency between the first time a load is issued and its completion (Unspecified)
system.processor.cores.core.lsq0.loadToUse::260-269            2      0.00%    100.00% # Distribution of cycle latency between the first time a load is issued and its completion (Unspecified)
system.processor.cores.core.lsq0.loadToUse::270-279            3      0.00%    100.00% # Distribution of cycle latency between the first time a load is issued and its completion (Unspecified)
system.processor.cores.core.lsq0.loadToUse::290-299            1      0.00%    100.00% # Distribution of cycle latency between the first time a load is issued and its completion (Unspecified)
system.processor.cores.core.lsq0.loadToUse::overflows           24      0.00%    100.00% # Distribution of cycle latency between the first time a load is issued and its completion (Unspecified)
system.processor.cores.core.lsq0.loadToUse::min_value            2                       # Distribution of cycle latency between the first time a load is issued and its completion (Unspecified)
system.processor.cores.core.lsq0.loadToUse::max_value          362                       # Distribution of cycle latency between the first time a load is issued and its completion (Unspecified)
system.processor.cores.core.lsq0.loadToUse::total     45587652                       # Distribution of cycle latency between the first time a load is issued and its completion (Unspecified)
system.processor.cores.core.mmu.dtb.readHits     53424027                       # read hits (Count)
system.processor.cores.core.mmu.dtb.readMisses        14699                       # read misses (Count)
system.processor.cores.core.mmu.dtb.readAccesses     53438726                       # read accesses (Count)
system.processor.cores.core.mmu.dtb.writeHits     43070762                       # write hits (Count)
system.processor.cores.core.mmu.dtb.writeMisses         3783                       # write misses (Count)
system.processor.cores.core.mmu.dtb.writeAccesses     43074545                       # write accesses (Count)
system.processor.cores.core.mmu.dtb.hits     96494789                       # Total TLB (read and write) hits (Count)
system.processor.cores.core.mmu.dtb.misses        18482                       # Total TLB (read and write) misses (Count)
system.processor.cores.core.mmu.dtb.accesses     96513271                       # Total TLB (read and write) accesses (Count)
system.processor.cores.core.mmu.dtb.walker.power_state.pwrStateResidencyTicks::UNDEFINED 285799798000                       # Cumulative time (in ticks) in various power states (Tick)
system.processor.cores.core.mmu.itb.readHits     58055965                       # read hits (Count)
system.processor.cores.core.mmu.itb.readMisses         9014                       # read misses (Count)
system.processor.cores.core.mmu.itb.readAccesses     58064979                       # read accesses (Count)
system.processor.cores.core.mmu.itb.writeHits            0                       # write hits (Count)
system.processor.cores.core.mmu.itb.writeMisses            0                       # write misses (Count)
system.processor.cores.core.mmu.itb.writeAccesses            0                       # write accesses (Count)
system.processor.cores.core.mmu.itb.hits     58055965                       # Total TLB (read and write) hits (Count)
system.processor.cores.core.mmu.itb.misses         9014                       # Total TLB (read and write) misses (Count)
system.processor.cores.core.mmu.itb.accesses     58064979                       # Total TLB (read and write) accesses (Count)
system.processor.cores.core.mmu.itb.walker.power_state.pwrStateResidencyTicks::UNDEFINED 285799798000                       # Cumulative time (in ticks) in various power states (Tick)
system.processor.cores.core.power_state.pwrStateResidencyTicks::ON 285799798000                       # Cumulative time (in ticks) in various power states (Tick)
system.processor.cores.core.rename.squashCycles      1328183                       # Number of cycles rename is squashing (Cycle)
system.processor.cores.core.rename.idleCycles     10490134                       # Number of cycles rename is idle (Cycle)
system.processor.cores.core.rename.blockCycles      5799762                       # Number of cycles rename is blocking (Cycle)
system.processor.cores.core.rename.serializeStallCycles    102366775                       # count of cycles rename stalled for serializing inst (Cycle)
system.processor.cores.core.rename.runCycles     41167079                       # Number of cycles rename is running (Cycle)
system.processor.cores.core.rename.unblockCycles      7695691                       # Number of cycles rename is unblocking (Cycle)
system.processor.cores.core.rename.renamedInsts    298905130                       # Number of instructions processed by rename (Count)
system.processor.cores.core.rename.ROBFullEvents          260                       # Number of times rename has blocked due to ROB full (Count)
system.processor.cores.core.rename.IQFullEvents      1655455                       # Number of times rename has blocked due to IQ full (Count)
system.processor.cores.core.rename.LQFullEvents       174875                       # Number of times rename has blocked due to LQ full (Count)
system.processor.cores.core.rename.SQFullEvents       150093                       # Number of times rename has blocked due to SQ full (Count)
system.processor.cores.core.rename.renamedOperands    219059988                       # Number of destination operands rename has renamed (Count)
system.processor.cores.core.rename.lookups    337383584                       # Number of register rename lookups that rename has made (Count)
system.processor.cores.core.rename.intLookups    327992907                       # Number of integer rename lookups (Count)
system.processor.cores.core.rename.fpLookups        47677                       # Number of floating rename lookups (Count)
system.processor.cores.core.rename.committedMaps    181981699                       # Number of HB maps that are committed (Count)
system.processor.cores.core.rename.undoneMaps     37078289                       # Number of HB maps that are undone due to squashing (Count)
system.processor.cores.core.rename.serializing      5722348                       # count of serializing insts renamed (Count)
system.processor.cores.core.rename.tempSerializing      5730371                       # count of temporary serializing insts renamed (Count)
system.processor.cores.core.rename.skidInsts     32234253                       # count of insts added to the skid buffer (Count)
system.processor.cores.core.rob.reads       445971664                       # The number of ROB reads (Count)
system.processor.cores.core.rob.writes      601735462                       # The number of ROB writes (Count)
system.processor.cores.core.thread_0.numInsts    247016573                       # Number of Instructions committed (Count)
system.processor.cores.core.thread_0.numOps    247576952                       # Number of Ops committed (Count)
system.processor.cores.core.thread_0.numMemRefs            0                       # Number of Memory References (Count)
system.workload.inst.arm                            0                       # number of arm instructions executed (Count)
system.workload.inst.quiesce                        0                       # number of quiesce instructions executed (Count)

---------- End Simulation Statistics   ----------
