
---------- Begin Simulation Statistics ----------
simSeconds                                   0.169673                       # Number of seconds simulated (Second)
simTicks                                 169673280000                       # Number of ticks simulated (Tick)
finalTick                                286054770000                       # Number of ticks from beginning of simulation (restored from checkpoints and never reset) (Tick)
simFreq                                  1000000000000                       # The number of ticks per simulated second ((Tick/Second))
hostSeconds                                    731.92                       # Real time elapsed on the host (Second)
hostTickRate                                231819297                       # The number of ticks simulated per host second (ticks/s) ((Tick/Second))
hostMemory                                     158448                       # Number of bytes of host memory used (Byte)
simInsts                                    410186837                       # Number of instructions simulated (Count)
simOps                                      411147872                       # Number of ops (including micro ops) simulated (Count)
hostInstRate                                   560425                       # Simulator instruction rate (inst/s) ((Count/Second))
hostOpRate                                     561738                       # Simulator op (including micro ops) rate (op/s) ((Count/Second))
system.bridge.power_state.pwrStateResidencyTicks::UNDEFINED 286054770000                       # Cumulative time (in ticks) in various power states (Tick)
system.cache_hierarchy.dptw_caches.demandHits::processor.cores.core.mmu.dtb.walker        44307                       # number of demand (read+write) hits (Count)
system.cache_hierarchy.dptw_caches.demandHits::total        44307                       # number of demand (read+write) hits (Count)
system.cache_hierarchy.dptw_caches.overallHits::processor.cores.core.mmu.dtb.walker        44307                       # number of overall hits (Count)
system.cache_hierarchy.dptw_caches.overallHits::total        44307                       # number of overall hits (Count)
system.cache_hierarchy.dptw_caches.demandMisses::processor.cores.core.mmu.dtb.walker         3692                       # number of demand (read+write) misses (Count)
system.cache_hierarchy.dptw_caches.demandMisses::total         3692                       # number of demand (read+write) misses (Count)
system.cache_hierarchy.dptw_caches.overallMisses::processor.cores.core.mmu.dtb.walker         3692                       # number of overall misses (Count)
system.cache_hierarchy.dptw_caches.overallMisses::total         3692                       # number of overall misses (Count)
system.cache_hierarchy.dptw_caches.demandMissLatency::processor.cores.core.mmu.dtb.walker     57312000                       # number of demand (read+write) miss ticks (Tick)
system.cache_hierarchy.dptw_caches.demandMissLatency::total     57312000                       # number of demand (read+write) miss ticks (Tick)
system.cache_hierarchy.dptw_caches.overallMissLatency::processor.cores.core.mmu.dtb.walker     57312000                       # number of overall miss ticks (Tick)
system.cache_hierarchy.dptw_caches.overallMissLatency::total     57312000                       # number of overall miss ticks (Tick)
system.cache_hierarchy.dptw_caches.demandAccesses::processor.cores.core.mmu.dtb.walker        47999                       # number of demand (read+write) accesses (Count)
system.cache_hierarchy.dptw_caches.demandAccesses::total        47999                       # number of demand (read+write) accesses (Count)
system.cache_hierarchy.dptw_caches.overallAccesses::processor.cores.core.mmu.dtb.walker        47999                       # number of overall (read+write) accesses (Count)
system.cache_hierarchy.dptw_caches.overallAccesses::total        47999                       # number of overall (read+write) accesses (Count)
system.cache_hierarchy.dptw_caches.demandMissRate::processor.cores.core.mmu.dtb.walker     0.076918                       # miss rate for demand accesses (Ratio)
system.cache_hierarchy.dptw_caches.demandMissRate::total     0.076918                       # miss rate for demand accesses (Ratio)
system.cache_hierarchy.dptw_caches.overallMissRate::processor.cores.core.mmu.dtb.walker     0.076918                       # miss rate for overall accesses (Ratio)
system.cache_hierarchy.dptw_caches.overallMissRate::total     0.076918                       # miss rate for overall accesses (Ratio)
system.cache_hierarchy.dptw_caches.demandAvgMissLatency::processor.cores.core.mmu.dtb.walker 15523.293608                       # average overall miss latency in ticks ((Tick/Count))
system.cache_hierarchy.dptw_caches.demandAvgMissLatency::total 15523.293608                       # average overall miss latency in ticks ((Tick/Count))
system.cache_hierarchy.dptw_caches.overallAvgMissLatency::processor.cores.core.mmu.dtb.walker 15523.293608                       # average overall miss latency ((Tick/Count))
system.cache_hierarchy.dptw_caches.overallAvgMissLatency::total 15523.293608                       # average overall miss latency ((Tick/Count))
system.cache_hierarchy.dptw_caches.blockedCycles::no_mshrs            0                       # number of cycles access was blocked (Cycle)
system.cache_hierarchy.dptw_caches.blockedCycles::no_targets            0                       # number of cycles access was blocked (Cycle)
system.cache_hierarchy.dptw_caches.blockedCauses::no_mshrs            0                       # number of times access was blocked (Count)
system.cache_hierarchy.dptw_caches.blockedCauses::no_targets            0                       # number of times access was blocked (Count)
system.cache_hierarchy.dptw_caches.avgBlocked::no_mshrs          nan                       # average number of cycles each access was blocked ((Cycle/Count))
system.cache_hierarchy.dptw_caches.avgBlocked::no_targets          nan                       # average number of cycles each access was blocked ((Cycle/Count))
system.cache_hierarchy.dptw_caches.writebacks::writebacks         3587                       # number of writebacks (Count)
system.cache_hierarchy.dptw_caches.writebacks::total         3587                       # number of writebacks (Count)
system.cache_hierarchy.dptw_caches.demandMshrMisses::processor.cores.core.mmu.dtb.walker         3692                       # number of demand (read+write) MSHR misses (Count)
system.cache_hierarchy.dptw_caches.demandMshrMisses::total         3692                       # number of demand (read+write) MSHR misses (Count)
system.cache_hierarchy.dptw_caches.overallMshrMisses::processor.cores.core.mmu.dtb.walker         3692                       # number of overall MSHR misses (Count)
system.cache_hierarchy.dptw_caches.overallMshrMisses::total         3692                       # number of overall MSHR misses (Count)
system.cache_hierarchy.dptw_caches.demandMshrMissLatency::processor.cores.core.mmu.dtb.walker     53620000                       # number of demand (read+write) MSHR miss ticks (Tick)
system.cache_hierarchy.dptw_caches.demandMshrMissLatency::total     53620000                       # number of demand (read+write) MSHR miss ticks (Tick)
system.cache_hierarchy.dptw_caches.overallMshrMissLatency::processor.cores.core.mmu.dtb.walker     53620000                       # number of overall MSHR miss ticks (Tick)
system.cache_hierarchy.dptw_caches.overallMshrMissLatency::total     53620000                       # number of overall MSHR miss ticks (Tick)
system.cache_hierarchy.dptw_caches.demandMshrMissRate::processor.cores.core.mmu.dtb.walker     0.076918                       # mshr miss ratio for demand accesses (Ratio)
system.cache_hierarchy.dptw_caches.demandMshrMissRate::total     0.076918                       # mshr miss ratio for demand accesses (Ratio)
system.cache_hierarchy.dptw_caches.overallMshrMissRate::processor.cores.core.mmu.dtb.walker     0.076918                       # mshr miss ratio for overall accesses (Ratio)
system.cache_hierarchy.dptw_caches.overallMshrMissRate::total     0.076918                       # mshr miss ratio for overall accesses (Ratio)
system.cache_hierarchy.dptw_caches.demandAvgMshrMissLatency::processor.cores.core.mmu.dtb.walker 14523.293608                       # average overall mshr miss latency ((Tick/Count))
system.cache_hierarchy.dptw_caches.demandAvgMshrMissLatency::total 14523.293608                       # average overall mshr miss latency ((Tick/Count))
system.cache_hierarchy.dptw_caches.overallAvgMshrMissLatency::processor.cores.core.mmu.dtb.walker 14523.293608                       # average overall mshr miss latency ((Tick/Count))
system.cache_hierarchy.dptw_caches.overallAvgMshrMissLatency::total 14523.293608                       # average overall mshr miss latency ((Tick/Count))
system.cache_hierarchy.dptw_caches.replacements         3587                       # number of replacements (Count)
system.cache_hierarchy.dptw_caches.ReadReq.hits::processor.cores.core.mmu.dtb.walker        44231                       # number of ReadReq hits (Count)
system.cache_hierarchy.dptw_caches.ReadReq.hits::total        44231                       # number of ReadReq hits (Count)
system.cache_hierarchy.dptw_caches.ReadReq.misses::processor.cores.core.mmu.dtb.walker         3670                       # number of ReadReq misses (Count)
system.cache_hierarchy.dptw_caches.ReadReq.misses::total         3670                       # number of ReadReq misses (Count)
system.cache_hierarchy.dptw_caches.ReadReq.missLatency::processor.cores.core.mmu.dtb.walker     57156000                       # number of ReadReq miss ticks (Tick)
system.cache_hierarchy.dptw_caches.ReadReq.missLatency::total     57156000                       # number of ReadReq miss ticks (Tick)
system.cache_hierarchy.dptw_caches.ReadReq.accesses::processor.cores.core.mmu.dtb.walker        47901                       # number of ReadReq accesses(hits+misses) (Count)
system.cache_hierarchy.dptw_caches.ReadReq.accesses::total        47901                       # number of ReadReq accesses(hits+misses) (Count)
system.cache_hierarchy.dptw_caches.ReadReq.missRate::processor.cores.core.mmu.dtb.walker     0.076616                       # miss rate for ReadReq accesses (Ratio)
system.cache_hierarchy.dptw_caches.ReadReq.missRate::total     0.076616                       # miss rate for ReadReq accesses (Ratio)
system.cache_hierarchy.dptw_caches.ReadReq.avgMissLatency::processor.cores.core.mmu.dtb.walker 15573.841962                       # average ReadReq miss latency ((Tick/Count))
system.cache_hierarchy.dptw_caches.ReadReq.avgMissLatency::total 15573.841962                       # average ReadReq miss latency ((Tick/Count))
system.cache_hierarchy.dptw_caches.ReadReq.mshrMisses::processor.cores.core.mmu.dtb.walker         3670                       # number of ReadReq MSHR misses (Count)
system.cache_hierarchy.dptw_caches.ReadReq.mshrMisses::total         3670                       # number of ReadReq MSHR misses (Count)
system.cache_hierarchy.dptw_caches.ReadReq.mshrMissLatency::processor.cores.core.mmu.dtb.walker     53486000                       # number of ReadReq MSHR miss ticks (Tick)
system.cache_hierarchy.dptw_caches.ReadReq.mshrMissLatency::total     53486000                       # number of ReadReq MSHR miss ticks (Tick)
system.cache_hierarchy.dptw_caches.ReadReq.mshrMissRate::processor.cores.core.mmu.dtb.walker     0.076616                       # mshr miss rate for ReadReq accesses (Ratio)
system.cache_hierarchy.dptw_caches.ReadReq.mshrMissRate::total     0.076616                       # mshr miss rate for ReadReq accesses (Ratio)
system.cache_hierarchy.dptw_caches.ReadReq.avgMshrMissLatency::processor.cores.core.mmu.dtb.walker 14573.841962                       # average ReadReq mshr miss latency ((Tick/Count))
system.cache_hierarchy.dptw_caches.ReadReq.avgMshrMissLatency::total 14573.841962                       # average ReadReq mshr miss latency ((Tick/Count))
system.cache_hierarchy.dptw_caches.WriteReq.hits::processor.cores.core.mmu.dtb.walker           76                       # number of WriteReq hits (Count)
system.cache_hierarchy.dptw_caches.WriteReq.hits::total           76                       # number of WriteReq hits (Count)
system.cache_hierarchy.dptw_caches.WriteReq.misses::processor.cores.core.mmu.dtb.walker           22                       # number of WriteReq misses (Count)
system.cache_hierarchy.dptw_caches.WriteReq.misses::total           22                       # number of WriteReq misses (Count)
system.cache_hierarchy.dptw_caches.WriteReq.missLatency::processor.cores.core.mmu.dtb.walker       156000                       # number of WriteReq miss ticks (Tick)
system.cache_hierarchy.dptw_caches.WriteReq.missLatency::total       156000                       # number of WriteReq miss ticks (Tick)
system.cache_hierarchy.dptw_caches.WriteReq.accesses::processor.cores.core.mmu.dtb.walker           98                       # number of WriteReq accesses(hits+misses) (Count)
system.cache_hierarchy.dptw_caches.WriteReq.accesses::total           98                       # number of WriteReq accesses(hits+misses) (Count)
system.cache_hierarchy.dptw_caches.WriteReq.missRate::processor.cores.core.mmu.dtb.walker     0.224490                       # miss rate for WriteReq accesses (Ratio)
system.cache_hierarchy.dptw_caches.WriteReq.missRate::total     0.224490                       # miss rate for WriteReq accesses (Ratio)
system.cache_hierarchy.dptw_caches.WriteReq.avgMissLatency::processor.cores.core.mmu.dtb.walker  7090.909091                       # average WriteReq miss latency ((Tick/Count))
system.cache_hierarchy.dptw_caches.WriteReq.avgMissLatency::total  7090.909091                       # average WriteReq miss latency ((Tick/Count))
system.cache_hierarchy.dptw_caches.WriteReq.mshrMisses::processor.cores.core.mmu.dtb.walker           22                       # number of WriteReq MSHR misses (Count)
system.cache_hierarchy.dptw_caches.WriteReq.mshrMisses::total           22                       # number of WriteReq MSHR misses (Count)
system.cache_hierarchy.dptw_caches.WriteReq.mshrMissLatency::processor.cores.core.mmu.dtb.walker       134000                       # number of WriteReq MSHR miss ticks (Tick)
system.cache_hierarchy.dptw_caches.WriteReq.mshrMissLatency::total       134000                       # number of WriteReq MSHR miss ticks (Tick)
system.cache_hierarchy.dptw_caches.WriteReq.mshrMissRate::processor.cores.core.mmu.dtb.walker     0.224490                       # mshr miss rate for WriteReq accesses (Ratio)
system.cache_hierarchy.dptw_caches.WriteReq.mshrMissRate::total     0.224490                       # mshr miss rate for WriteReq accesses (Ratio)
system.cache_hierarchy.dptw_caches.WriteReq.avgMshrMissLatency::processor.cores.core.mmu.dtb.walker  6090.909091                       # average WriteReq mshr miss latency ((Tick/Count))
system.cache_hierarchy.dptw_caches.WriteReq.avgMshrMissLatency::total  6090.909091                       # average WriteReq mshr miss latency ((Tick/Count))
system.cache_hierarchy.dptw_caches.power_state.pwrStateResidencyTicks::UNDEFINED 286054770000                       # Cumulative time (in ticks) in various power states (Tick)
system.cache_hierarchy.dptw_caches.tags.tagsInUse   111.705489                       # Average ticks per tags in use ((Tick/Count))
system.cache_hierarchy.dptw_caches.tags.totalRefs        42258                       # Total number of references to valid blocks. (Count)
system.cache_hierarchy.dptw_caches.tags.sampledRefs         3609                       # Sample count of references to valid blocks. (Count)
system.cache_hierarchy.dptw_caches.tags.avgRefs    11.709061                       # Average number of references to valid blocks. ((Count/Count))
system.cache_hierarchy.dptw_caches.tags.warmupTick            0                       # The tick when the warmup percentage was hit. (Tick)
system.cache_hierarchy.dptw_caches.tags.occupancies::processor.cores.core.mmu.dtb.walker   111.705489                       # Average occupied blocks per tick, per requestor ((Count/Tick))
system.cache_hierarchy.dptw_caches.tags.avgOccs::processor.cores.core.mmu.dtb.walker     0.872699                       # Average percentage of cache occupancy ((Ratio/Tick))
system.cache_hierarchy.dptw_caches.tags.avgOccs::total     0.872699                       # Average percentage of cache occupancy ((Ratio/Tick))
system.cache_hierarchy.dptw_caches.tags.occupanciesTaskId::1024          115                       # Occupied blocks per task id (Count)
system.cache_hierarchy.dptw_caches.tags.ageTaskId_1024::0            1                       # Occupied blocks per task id, per block age (Count)
system.cache_hierarchy.dptw_caches.tags.ageTaskId_1024::1           10                       # Occupied blocks per task id, per block age (Count)
system.cache_hierarchy.dptw_caches.tags.ageTaskId_1024::3            3                       # Occupied blocks per task id, per block age (Count)
system.cache_hierarchy.dptw_caches.tags.ageTaskId_1024::4          101                       # Occupied blocks per task id, per block age (Count)
system.cache_hierarchy.dptw_caches.tags.ratioOccsTaskId::1024     0.898438                       # Ratio of occupied blocks and all blocks, per task id (Ratio)
system.cache_hierarchy.dptw_caches.tags.tagAccesses       195666                       # Number of tag accesses (Count)
system.cache_hierarchy.dptw_caches.tags.dataAccesses       195666                       # Number of data accesses (Count)
system.cache_hierarchy.dptw_caches.tags.power_state.pwrStateResidencyTicks::UNDEFINED 286054770000                       # Cumulative time (in ticks) in various power states (Tick)
system.cache_hierarchy.iocache.demandHits::lupio_blk           15                       # number of demand (read+write) hits (Count)
system.cache_hierarchy.iocache.demandHits::total           15                       # number of demand (read+write) hits (Count)
system.cache_hierarchy.iocache.overallHits::lupio_blk           15                       # number of overall hits (Count)
system.cache_hierarchy.iocache.overallHits::total           15                       # number of overall hits (Count)
system.cache_hierarchy.iocache.demandMisses::lupio_blk        18353                       # number of demand (read+write) misses (Count)
system.cache_hierarchy.iocache.demandMisses::total        18353                       # number of demand (read+write) misses (Count)
system.cache_hierarchy.iocache.overallMisses::lupio_blk        18353                       # number of overall misses (Count)
system.cache_hierarchy.iocache.overallMisses::total        18353                       # number of overall misses (Count)
system.cache_hierarchy.iocache.demandMissLatency::lupio_blk   2694978000                       # number of demand (read+write) miss ticks (Tick)
system.cache_hierarchy.iocache.demandMissLatency::total   2694978000                       # number of demand (read+write) miss ticks (Tick)
system.cache_hierarchy.iocache.overallMissLatency::lupio_blk   2694978000                       # number of overall miss ticks (Tick)
system.cache_hierarchy.iocache.overallMissLatency::total   2694978000                       # number of overall miss ticks (Tick)
system.cache_hierarchy.iocache.demandAccesses::lupio_blk        18368                       # number of demand (read+write) accesses (Count)
system.cache_hierarchy.iocache.demandAccesses::total        18368                       # number of demand (read+write) accesses (Count)
system.cache_hierarchy.iocache.overallAccesses::lupio_blk        18368                       # number of overall (read+write) accesses (Count)
system.cache_hierarchy.iocache.overallAccesses::total        18368                       # number of overall (read+write) accesses (Count)
system.cache_hierarchy.iocache.demandMissRate::lupio_blk     0.999183                       # miss rate for demand accesses (Ratio)
system.cache_hierarchy.iocache.demandMissRate::total     0.999183                       # miss rate for demand accesses (Ratio)
system.cache_hierarchy.iocache.overallMissRate::lupio_blk     0.999183                       # miss rate for overall accesses (Ratio)
system.cache_hierarchy.iocache.overallMissRate::total     0.999183                       # miss rate for overall accesses (Ratio)
system.cache_hierarchy.iocache.demandAvgMissLatency::lupio_blk 146841.279355                       # average overall miss latency in ticks ((Tick/Count))
system.cache_hierarchy.iocache.demandAvgMissLatency::total 146841.279355                       # average overall miss latency in ticks ((Tick/Count))
system.cache_hierarchy.iocache.overallAvgMissLatency::lupio_blk 146841.279355                       # average overall miss latency ((Tick/Count))
system.cache_hierarchy.iocache.overallAvgMissLatency::total 146841.279355                       # average overall miss latency ((Tick/Count))
system.cache_hierarchy.iocache.blockedCycles::no_mshrs            0                       # number of cycles access was blocked (Cycle)
system.cache_hierarchy.iocache.blockedCycles::no_targets            0                       # number of cycles access was blocked (Cycle)
system.cache_hierarchy.iocache.blockedCauses::no_mshrs            0                       # number of times access was blocked (Count)
system.cache_hierarchy.iocache.blockedCauses::no_targets            0                       # number of times access was blocked (Count)
system.cache_hierarchy.iocache.avgBlocked::no_mshrs          nan                       # average number of cycles each access was blocked ((Cycle/Count))
system.cache_hierarchy.iocache.avgBlocked::no_targets          nan                       # average number of cycles each access was blocked ((Cycle/Count))
system.cache_hierarchy.iocache.writebacks::writebacks          247                       # number of writebacks (Count)
system.cache_hierarchy.iocache.writebacks::total          247                       # number of writebacks (Count)
system.cache_hierarchy.iocache.demandMshrMisses::lupio_blk        18353                       # number of demand (read+write) MSHR misses (Count)
system.cache_hierarchy.iocache.demandMshrMisses::total        18353                       # number of demand (read+write) MSHR misses (Count)
system.cache_hierarchy.iocache.overallMshrMisses::lupio_blk        18353                       # number of overall MSHR misses (Count)
system.cache_hierarchy.iocache.overallMshrMisses::total        18353                       # number of overall MSHR misses (Count)
system.cache_hierarchy.iocache.demandMshrMissLatency::lupio_blk   1777304024                       # number of demand (read+write) MSHR miss ticks (Tick)
system.cache_hierarchy.iocache.demandMshrMissLatency::total   1777304024                       # number of demand (read+write) MSHR miss ticks (Tick)
system.cache_hierarchy.iocache.overallMshrMissLatency::lupio_blk   1777304024                       # number of overall MSHR miss ticks (Tick)
system.cache_hierarchy.iocache.overallMshrMissLatency::total   1777304024                       # number of overall MSHR miss ticks (Tick)
system.cache_hierarchy.iocache.demandMshrMissRate::lupio_blk     0.999183                       # mshr miss ratio for demand accesses (Ratio)
system.cache_hierarchy.iocache.demandMshrMissRate::total     0.999183                       # mshr miss ratio for demand accesses (Ratio)
system.cache_hierarchy.iocache.overallMshrMissRate::lupio_blk     0.999183                       # mshr miss ratio for overall accesses (Ratio)
system.cache_hierarchy.iocache.overallMshrMissRate::total     0.999183                       # mshr miss ratio for overall accesses (Ratio)
system.cache_hierarchy.iocache.demandAvgMshrMissLatency::lupio_blk 96839.972974                       # average overall mshr miss latency ((Tick/Count))
system.cache_hierarchy.iocache.demandAvgMshrMissLatency::total 96839.972974                       # average overall mshr miss latency ((Tick/Count))
system.cache_hierarchy.iocache.overallAvgMshrMissLatency::lupio_blk 96839.972974                       # average overall mshr miss latency ((Tick/Count))
system.cache_hierarchy.iocache.overallAvgMshrMissLatency::total 96839.972974                       # average overall mshr miss latency ((Tick/Count))
system.cache_hierarchy.iocache.replacements        17648                       # number of replacements (Count)
system.cache_hierarchy.iocache.ReadReq.hits::lupio_blk           15                       # number of ReadReq hits (Count)
system.cache_hierarchy.iocache.ReadReq.hits::total           15                       # number of ReadReq hits (Count)
system.cache_hierarchy.iocache.ReadReq.misses::lupio_blk        17713                       # number of ReadReq misses (Count)
system.cache_hierarchy.iocache.ReadReq.misses::total        17713                       # number of ReadReq misses (Count)
system.cache_hierarchy.iocache.ReadReq.missLatency::lupio_blk   2617838000                       # number of ReadReq miss ticks (Tick)
system.cache_hierarchy.iocache.ReadReq.missLatency::total   2617838000                       # number of ReadReq miss ticks (Tick)
system.cache_hierarchy.iocache.ReadReq.accesses::lupio_blk        17728                       # number of ReadReq accesses(hits+misses) (Count)
system.cache_hierarchy.iocache.ReadReq.accesses::total        17728                       # number of ReadReq accesses(hits+misses) (Count)
system.cache_hierarchy.iocache.ReadReq.missRate::lupio_blk     0.999154                       # miss rate for ReadReq accesses (Ratio)
system.cache_hierarchy.iocache.ReadReq.missRate::total     0.999154                       # miss rate for ReadReq accesses (Ratio)
system.cache_hierarchy.iocache.ReadReq.avgMissLatency::lupio_blk 147791.904251                       # average ReadReq miss latency ((Tick/Count))
system.cache_hierarchy.iocache.ReadReq.avgMissLatency::total 147791.904251                       # average ReadReq miss latency ((Tick/Count))
system.cache_hierarchy.iocache.ReadReq.mshrMisses::lupio_blk        17713                       # number of ReadReq MSHR misses (Count)
system.cache_hierarchy.iocache.ReadReq.mshrMisses::total        17713                       # number of ReadReq MSHR misses (Count)
system.cache_hierarchy.iocache.ReadReq.mshrMissLatency::lupio_blk   1732188000                       # number of ReadReq MSHR miss ticks (Tick)
system.cache_hierarchy.iocache.ReadReq.mshrMissLatency::total   1732188000                       # number of ReadReq MSHR miss ticks (Tick)
system.cache_hierarchy.iocache.ReadReq.mshrMissRate::lupio_blk     0.999154                       # mshr miss rate for ReadReq accesses (Ratio)
system.cache_hierarchy.iocache.ReadReq.mshrMissRate::total     0.999154                       # mshr miss rate for ReadReq accesses (Ratio)
system.cache_hierarchy.iocache.ReadReq.avgMshrMissLatency::lupio_blk 97791.904251                       # average ReadReq mshr miss latency ((Tick/Count))
system.cache_hierarchy.iocache.ReadReq.avgMshrMissLatency::total 97791.904251                       # average ReadReq mshr miss latency ((Tick/Count))
system.cache_hierarchy.iocache.WriteLineReq.misses::lupio_blk          576                       # number of WriteLineReq misses (Count)
system.cache_hierarchy.iocache.WriteLineReq.misses::total          576                       # number of WriteLineReq misses (Count)
system.cache_hierarchy.iocache.WriteLineReq.missLatency::lupio_blk     69481000                       # number of WriteLineReq miss ticks (Tick)
system.cache_hierarchy.iocache.WriteLineReq.missLatency::total     69481000                       # number of WriteLineReq miss ticks (Tick)
system.cache_hierarchy.iocache.WriteLineReq.accesses::lupio_blk          576                       # number of WriteLineReq accesses(hits+misses) (Count)
system.cache_hierarchy.iocache.WriteLineReq.accesses::total          576                       # number of WriteLineReq accesses(hits+misses) (Count)
system.cache_hierarchy.iocache.WriteLineReq.missRate::lupio_blk            1                       # miss rate for WriteLineReq accesses (Ratio)
system.cache_hierarchy.iocache.WriteLineReq.missRate::total            1                       # miss rate for WriteLineReq accesses (Ratio)
system.cache_hierarchy.iocache.WriteLineReq.avgMissLatency::lupio_blk 120626.736111                       # average WriteLineReq miss latency ((Tick/Count))
system.cache_hierarchy.iocache.WriteLineReq.avgMissLatency::total 120626.736111                       # average WriteLineReq miss latency ((Tick/Count))
system.cache_hierarchy.iocache.WriteLineReq.mshrMisses::lupio_blk          576                       # number of WriteLineReq MSHR misses (Count)
system.cache_hierarchy.iocache.WriteLineReq.mshrMisses::total          576                       # number of WriteLineReq MSHR misses (Count)
system.cache_hierarchy.iocache.WriteLineReq.mshrMissLatency::lupio_blk     40657024                       # number of WriteLineReq MSHR miss ticks (Tick)
system.cache_hierarchy.iocache.WriteLineReq.mshrMissLatency::total     40657024                       # number of WriteLineReq MSHR miss ticks (Tick)
system.cache_hierarchy.iocache.WriteLineReq.mshrMissRate::lupio_blk            1                       # mshr miss rate for WriteLineReq accesses (Ratio)
system.cache_hierarchy.iocache.WriteLineReq.mshrMissRate::total            1                       # mshr miss rate for WriteLineReq accesses (Ratio)
system.cache_hierarchy.iocache.WriteLineReq.avgMshrMissLatency::lupio_blk 70585.111111                       # average WriteLineReq mshr miss latency ((Tick/Count))
system.cache_hierarchy.iocache.WriteLineReq.avgMshrMissLatency::total 70585.111111                       # average WriteLineReq mshr miss latency ((Tick/Count))
system.cache_hierarchy.iocache.WriteReq.misses::lupio_blk           64                       # number of WriteReq misses (Count)
system.cache_hierarchy.iocache.WriteReq.misses::total           64                       # number of WriteReq misses (Count)
system.cache_hierarchy.iocache.WriteReq.missLatency::lupio_blk      7659000                       # number of WriteReq miss ticks (Tick)
system.cache_hierarchy.iocache.WriteReq.missLatency::total      7659000                       # number of WriteReq miss ticks (Tick)
system.cache_hierarchy.iocache.WriteReq.accesses::lupio_blk           64                       # number of WriteReq accesses(hits+misses) (Count)
system.cache_hierarchy.iocache.WriteReq.accesses::total           64                       # number of WriteReq accesses(hits+misses) (Count)
system.cache_hierarchy.iocache.WriteReq.missRate::lupio_blk            1                       # miss rate for WriteReq accesses (Ratio)
system.cache_hierarchy.iocache.WriteReq.missRate::total            1                       # miss rate for WriteReq accesses (Ratio)
system.cache_hierarchy.iocache.WriteReq.avgMissLatency::lupio_blk 119671.875000                       # average WriteReq miss latency ((Tick/Count))
system.cache_hierarchy.iocache.WriteReq.avgMissLatency::total 119671.875000                       # average WriteReq miss latency ((Tick/Count))
system.cache_hierarchy.iocache.WriteReq.mshrMisses::lupio_blk           64                       # number of WriteReq MSHR misses (Count)
system.cache_hierarchy.iocache.WriteReq.mshrMisses::total           64                       # number of WriteReq MSHR misses (Count)
system.cache_hierarchy.iocache.WriteReq.mshrMissLatency::lupio_blk      4459000                       # number of WriteReq MSHR miss ticks (Tick)
system.cache_hierarchy.iocache.WriteReq.mshrMissLatency::total      4459000                       # number of WriteReq MSHR miss ticks (Tick)
system.cache_hierarchy.iocache.WriteReq.mshrMissRate::lupio_blk            1                       # mshr miss rate for WriteReq accesses (Ratio)
system.cache_hierarchy.iocache.WriteReq.mshrMissRate::total            1                       # mshr miss rate for WriteReq accesses (Ratio)
system.cache_hierarchy.iocache.WriteReq.avgMshrMissLatency::lupio_blk 69671.875000                       # average WriteReq mshr miss latency ((Tick/Count))
system.cache_hierarchy.iocache.WriteReq.avgMshrMissLatency::total 69671.875000                       # average WriteReq mshr miss latency ((Tick/Count))
system.cache_hierarchy.iocache.power_state.pwrStateResidencyTicks::UNDEFINED 286054770000                       # Cumulative time (in ticks) in various power states (Tick)
system.cache_hierarchy.iocache.tags.tagsInUse    15.841125                       # Average ticks per tags in use ((Tick/Count))
system.cache_hierarchy.iocache.tags.totalRefs        18368                       # Total number of references to valid blocks. (Count)
system.cache_hierarchy.iocache.tags.sampledRefs        18353                       # Sample count of references to valid blocks. (Count)
system.cache_hierarchy.iocache.tags.avgRefs     1.000817                       # Average number of references to valid blocks. ((Count/Count))
system.cache_hierarchy.iocache.tags.warmupTick            0                       # The tick when the warmup percentage was hit. (Tick)
system.cache_hierarchy.iocache.tags.occupancies::lupio_blk    15.841125                       # Average occupied blocks per tick, per requestor ((Count/Tick))
system.cache_hierarchy.iocache.tags.avgOccs::lupio_blk     0.990070                       # Average percentage of cache occupancy ((Ratio/Tick))
system.cache_hierarchy.iocache.tags.avgOccs::total     0.990070                       # Average percentage of cache occupancy ((Ratio/Tick))
system.cache_hierarchy.iocache.tags.occupanciesTaskId::1023           16                       # Occupied blocks per task id (Count)
system.cache_hierarchy.iocache.tags.ageTaskId_1023::2           16                       # Occupied blocks per task id, per block age (Count)
system.cache_hierarchy.iocache.tags.ratioOccsTaskId::1023            1                       # Ratio of occupied blocks and all blocks, per task id (Ratio)
system.cache_hierarchy.iocache.tags.tagAccesses       165297                       # Number of tag accesses (Count)
system.cache_hierarchy.iocache.tags.dataAccesses       165297                       # Number of data accesses (Count)
system.cache_hierarchy.iocache.tags.power_state.pwrStateResidencyTicks::UNDEFINED 286054770000                       # Cumulative time (in ticks) in various power states (Tick)
system.cache_hierarchy.iptw_caches.demandHits::processor.cores.core.mmu.itb.walker        19006                       # number of demand (read+write) hits (Count)
system.cache_hierarchy.iptw_caches.demandHits::total        19006                       # number of demand (read+write) hits (Count)
system.cache_hierarchy.iptw_caches.overallHits::processor.cores.core.mmu.itb.walker        19006                       # number of overall hits (Count)
system.cache_hierarchy.iptw_caches.overallHits::total        19006                       # number of overall hits (Count)
system.cache_hierarchy.iptw_caches.demandMisses::processor.cores.core.mmu.itb.walker         2398                       # number of demand (read+write) misses (Count)
system.cache_hierarchy.iptw_caches.demandMisses::total         2398                       # number of demand (read+write) misses (Count)
system.cache_hierarchy.iptw_caches.overallMisses::processor.cores.core.mmu.itb.walker         2398                       # number of overall misses (Count)
system.cache_hierarchy.iptw_caches.overallMisses::total         2398                       # number of overall misses (Count)
system.cache_hierarchy.iptw_caches.demandMissLatency::processor.cores.core.mmu.itb.walker     37841000                       # number of demand (read+write) miss ticks (Tick)
system.cache_hierarchy.iptw_caches.demandMissLatency::total     37841000                       # number of demand (read+write) miss ticks (Tick)
system.cache_hierarchy.iptw_caches.overallMissLatency::processor.cores.core.mmu.itb.walker     37841000                       # number of overall miss ticks (Tick)
system.cache_hierarchy.iptw_caches.overallMissLatency::total     37841000                       # number of overall miss ticks (Tick)
system.cache_hierarchy.iptw_caches.demandAccesses::processor.cores.core.mmu.itb.walker        21404                       # number of demand (read+write) accesses (Count)
system.cache_hierarchy.iptw_caches.demandAccesses::total        21404                       # number of demand (read+write) accesses (Count)
system.cache_hierarchy.iptw_caches.overallAccesses::processor.cores.core.mmu.itb.walker        21404                       # number of overall (read+write) accesses (Count)
system.cache_hierarchy.iptw_caches.overallAccesses::total        21404                       # number of overall (read+write) accesses (Count)
system.cache_hierarchy.iptw_caches.demandMissRate::processor.cores.core.mmu.itb.walker     0.112035                       # miss rate for demand accesses (Ratio)
system.cache_hierarchy.iptw_caches.demandMissRate::total     0.112035                       # miss rate for demand accesses (Ratio)
system.cache_hierarchy.iptw_caches.overallMissRate::processor.cores.core.mmu.itb.walker     0.112035                       # miss rate for overall accesses (Ratio)
system.cache_hierarchy.iptw_caches.overallMissRate::total     0.112035                       # miss rate for overall accesses (Ratio)
system.cache_hierarchy.iptw_caches.demandAvgMissLatency::processor.cores.core.mmu.itb.walker 15780.233528                       # average overall miss latency in ticks ((Tick/Count))
system.cache_hierarchy.iptw_caches.demandAvgMissLatency::total 15780.233528                       # average overall miss latency in ticks ((Tick/Count))
system.cache_hierarchy.iptw_caches.overallAvgMissLatency::processor.cores.core.mmu.itb.walker 15780.233528                       # average overall miss latency ((Tick/Count))
system.cache_hierarchy.iptw_caches.overallAvgMissLatency::total 15780.233528                       # average overall miss latency ((Tick/Count))
system.cache_hierarchy.iptw_caches.blockedCycles::no_mshrs            0                       # number of cycles access was blocked (Cycle)
system.cache_hierarchy.iptw_caches.blockedCycles::no_targets            0                       # number of cycles access was blocked (Cycle)
system.cache_hierarchy.iptw_caches.blockedCauses::no_mshrs            0                       # number of times access was blocked (Count)
system.cache_hierarchy.iptw_caches.blockedCauses::no_targets            0                       # number of times access was blocked (Count)
system.cache_hierarchy.iptw_caches.avgBlocked::no_mshrs          nan                       # average number of cycles each access was blocked ((Cycle/Count))
system.cache_hierarchy.iptw_caches.avgBlocked::no_targets          nan                       # average number of cycles each access was blocked ((Cycle/Count))
system.cache_hierarchy.iptw_caches.writebacks::writebacks         2343                       # number of writebacks (Count)
system.cache_hierarchy.iptw_caches.writebacks::total         2343                       # number of writebacks (Count)
system.cache_hierarchy.iptw_caches.demandMshrMisses::processor.cores.core.mmu.itb.walker         2398                       # number of demand (read+write) MSHR misses (Count)
system.cache_hierarchy.iptw_caches.demandMshrMisses::total         2398                       # number of demand (read+write) MSHR misses (Count)
system.cache_hierarchy.iptw_caches.overallMshrMisses::processor.cores.core.mmu.itb.walker         2398                       # number of overall MSHR misses (Count)
system.cache_hierarchy.iptw_caches.overallMshrMisses::total         2398                       # number of overall MSHR misses (Count)
system.cache_hierarchy.iptw_caches.demandMshrMissLatency::processor.cores.core.mmu.itb.walker     35443000                       # number of demand (read+write) MSHR miss ticks (Tick)
system.cache_hierarchy.iptw_caches.demandMshrMissLatency::total     35443000                       # number of demand (read+write) MSHR miss ticks (Tick)
system.cache_hierarchy.iptw_caches.overallMshrMissLatency::processor.cores.core.mmu.itb.walker     35443000                       # number of overall MSHR miss ticks (Tick)
system.cache_hierarchy.iptw_caches.overallMshrMissLatency::total     35443000                       # number of overall MSHR miss ticks (Tick)
system.cache_hierarchy.iptw_caches.demandMshrMissRate::processor.cores.core.mmu.itb.walker     0.112035                       # mshr miss ratio for demand accesses (Ratio)
system.cache_hierarchy.iptw_caches.demandMshrMissRate::total     0.112035                       # mshr miss ratio for demand accesses (Ratio)
system.cache_hierarchy.iptw_caches.overallMshrMissRate::processor.cores.core.mmu.itb.walker     0.112035                       # mshr miss ratio for overall accesses (Ratio)
system.cache_hierarchy.iptw_caches.overallMshrMissRate::total     0.112035                       # mshr miss ratio for overall accesses (Ratio)
system.cache_hierarchy.iptw_caches.demandAvgMshrMissLatency::processor.cores.core.mmu.itb.walker 14780.233528                       # average overall mshr miss latency ((Tick/Count))
system.cache_hierarchy.iptw_caches.demandAvgMshrMissLatency::total 14780.233528                       # average overall mshr miss latency ((Tick/Count))
system.cache_hierarchy.iptw_caches.overallAvgMshrMissLatency::processor.cores.core.mmu.itb.walker 14780.233528                       # average overall mshr miss latency ((Tick/Count))
system.cache_hierarchy.iptw_caches.overallAvgMshrMissLatency::total 14780.233528                       # average overall mshr miss latency ((Tick/Count))
system.cache_hierarchy.iptw_caches.replacements         2343                       # number of replacements (Count)
system.cache_hierarchy.iptw_caches.ReadReq.hits::processor.cores.core.mmu.itb.walker        18854                       # number of ReadReq hits (Count)
system.cache_hierarchy.iptw_caches.ReadReq.hits::total        18854                       # number of ReadReq hits (Count)
system.cache_hierarchy.iptw_caches.ReadReq.misses::processor.cores.core.mmu.itb.walker         2381                       # number of ReadReq misses (Count)
system.cache_hierarchy.iptw_caches.ReadReq.misses::total         2381                       # number of ReadReq misses (Count)
system.cache_hierarchy.iptw_caches.ReadReq.missLatency::processor.cores.core.mmu.itb.walker     37606000                       # number of ReadReq miss ticks (Tick)
system.cache_hierarchy.iptw_caches.ReadReq.missLatency::total     37606000                       # number of ReadReq miss ticks (Tick)
system.cache_hierarchy.iptw_caches.ReadReq.accesses::processor.cores.core.mmu.itb.walker        21235                       # number of ReadReq accesses(hits+misses) (Count)
system.cache_hierarchy.iptw_caches.ReadReq.accesses::total        21235                       # number of ReadReq accesses(hits+misses) (Count)
system.cache_hierarchy.iptw_caches.ReadReq.missRate::processor.cores.core.mmu.itb.walker     0.112126                       # miss rate for ReadReq accesses (Ratio)
system.cache_hierarchy.iptw_caches.ReadReq.missRate::total     0.112126                       # miss rate for ReadReq accesses (Ratio)
system.cache_hierarchy.iptw_caches.ReadReq.avgMissLatency::processor.cores.core.mmu.itb.walker 15794.204116                       # average ReadReq miss latency ((Tick/Count))
system.cache_hierarchy.iptw_caches.ReadReq.avgMissLatency::total 15794.204116                       # average ReadReq miss latency ((Tick/Count))
system.cache_hierarchy.iptw_caches.ReadReq.mshrMisses::processor.cores.core.mmu.itb.walker         2381                       # number of ReadReq MSHR misses (Count)
system.cache_hierarchy.iptw_caches.ReadReq.mshrMisses::total         2381                       # number of ReadReq MSHR misses (Count)
system.cache_hierarchy.iptw_caches.ReadReq.mshrMissLatency::processor.cores.core.mmu.itb.walker     35225000                       # number of ReadReq MSHR miss ticks (Tick)
system.cache_hierarchy.iptw_caches.ReadReq.mshrMissLatency::total     35225000                       # number of ReadReq MSHR miss ticks (Tick)
system.cache_hierarchy.iptw_caches.ReadReq.mshrMissRate::processor.cores.core.mmu.itb.walker     0.112126                       # mshr miss rate for ReadReq accesses (Ratio)
system.cache_hierarchy.iptw_caches.ReadReq.mshrMissRate::total     0.112126                       # mshr miss rate for ReadReq accesses (Ratio)
system.cache_hierarchy.iptw_caches.ReadReq.avgMshrMissLatency::processor.cores.core.mmu.itb.walker 14794.204116                       # average ReadReq mshr miss latency ((Tick/Count))
system.cache_hierarchy.iptw_caches.ReadReq.avgMshrMissLatency::total 14794.204116                       # average ReadReq mshr miss latency ((Tick/Count))
system.cache_hierarchy.iptw_caches.WriteReq.hits::processor.cores.core.mmu.itb.walker          152                       # number of WriteReq hits (Count)
system.cache_hierarchy.iptw_caches.WriteReq.hits::total          152                       # number of WriteReq hits (Count)
system.cache_hierarchy.iptw_caches.WriteReq.misses::processor.cores.core.mmu.itb.walker           17                       # number of WriteReq misses (Count)
system.cache_hierarchy.iptw_caches.WriteReq.misses::total           17                       # number of WriteReq misses (Count)
system.cache_hierarchy.iptw_caches.WriteReq.missLatency::processor.cores.core.mmu.itb.walker       235000                       # number of WriteReq miss ticks (Tick)
system.cache_hierarchy.iptw_caches.WriteReq.missLatency::total       235000                       # number of WriteReq miss ticks (Tick)
system.cache_hierarchy.iptw_caches.WriteReq.accesses::processor.cores.core.mmu.itb.walker          169                       # number of WriteReq accesses(hits+misses) (Count)
system.cache_hierarchy.iptw_caches.WriteReq.accesses::total          169                       # number of WriteReq accesses(hits+misses) (Count)
system.cache_hierarchy.iptw_caches.WriteReq.missRate::processor.cores.core.mmu.itb.walker     0.100592                       # miss rate for WriteReq accesses (Ratio)
system.cache_hierarchy.iptw_caches.WriteReq.missRate::total     0.100592                       # miss rate for WriteReq accesses (Ratio)
system.cache_hierarchy.iptw_caches.WriteReq.avgMissLatency::processor.cores.core.mmu.itb.walker 13823.529412                       # average WriteReq miss latency ((Tick/Count))
system.cache_hierarchy.iptw_caches.WriteReq.avgMissLatency::total 13823.529412                       # average WriteReq miss latency ((Tick/Count))
system.cache_hierarchy.iptw_caches.WriteReq.mshrMisses::processor.cores.core.mmu.itb.walker           17                       # number of WriteReq MSHR misses (Count)
system.cache_hierarchy.iptw_caches.WriteReq.mshrMisses::total           17                       # number of WriteReq MSHR misses (Count)
system.cache_hierarchy.iptw_caches.WriteReq.mshrMissLatency::processor.cores.core.mmu.itb.walker       218000                       # number of WriteReq MSHR miss ticks (Tick)
system.cache_hierarchy.iptw_caches.WriteReq.mshrMissLatency::total       218000                       # number of WriteReq MSHR miss ticks (Tick)
system.cache_hierarchy.iptw_caches.WriteReq.mshrMissRate::processor.cores.core.mmu.itb.walker     0.100592                       # mshr miss rate for WriteReq accesses (Ratio)
system.cache_hierarchy.iptw_caches.WriteReq.mshrMissRate::total     0.100592                       # mshr miss rate for WriteReq accesses (Ratio)
system.cache_hierarchy.iptw_caches.WriteReq.avgMshrMissLatency::processor.cores.core.mmu.itb.walker 12823.529412                       # average WriteReq mshr miss latency ((Tick/Count))
system.cache_hierarchy.iptw_caches.WriteReq.avgMshrMissLatency::total 12823.529412                       # average WriteReq mshr miss latency ((Tick/Count))
system.cache_hierarchy.iptw_caches.power_state.pwrStateResidencyTicks::UNDEFINED 286054770000                       # Cumulative time (in ticks) in various power states (Tick)
system.cache_hierarchy.iptw_caches.tags.tagsInUse    40.438180                       # Average ticks per tags in use ((Tick/Count))
system.cache_hierarchy.iptw_caches.tags.totalRefs        18434                       # Total number of references to valid blocks. (Count)
system.cache_hierarchy.iptw_caches.tags.sampledRefs         2352                       # Sample count of references to valid blocks. (Count)
system.cache_hierarchy.iptw_caches.tags.avgRefs     7.837585                       # Average number of references to valid blocks. ((Count/Count))
system.cache_hierarchy.iptw_caches.tags.warmupTick            0                       # The tick when the warmup percentage was hit. (Tick)
system.cache_hierarchy.iptw_caches.tags.occupancies::processor.cores.core.mmu.itb.walker    40.438180                       # Average occupied blocks per tick, per requestor ((Count/Tick))
system.cache_hierarchy.iptw_caches.tags.avgOccs::processor.cores.core.mmu.itb.walker     0.315923                       # Average percentage of cache occupancy ((Ratio/Tick))
system.cache_hierarchy.iptw_caches.tags.avgOccs::total     0.315923                       # Average percentage of cache occupancy ((Ratio/Tick))
system.cache_hierarchy.iptw_caches.tags.occupanciesTaskId::1024           42                       # Occupied blocks per task id (Count)
system.cache_hierarchy.iptw_caches.tags.ageTaskId_1024::1            9                       # Occupied blocks per task id, per block age (Count)
system.cache_hierarchy.iptw_caches.tags.ageTaskId_1024::4           33                       # Occupied blocks per task id, per block age (Count)
system.cache_hierarchy.iptw_caches.tags.ratioOccsTaskId::1024     0.328125                       # Ratio of occupied blocks and all blocks, per task id (Ratio)
system.cache_hierarchy.iptw_caches.tags.tagAccesses        87997                       # Number of tag accesses (Count)
system.cache_hierarchy.iptw_caches.tags.dataAccesses        87997                       # Number of data accesses (Count)
system.cache_hierarchy.iptw_caches.tags.power_state.pwrStateResidencyTicks::UNDEFINED 286054770000                       # Cumulative time (in ticks) in various power states (Tick)
system.cache_hierarchy.l1dcaches.demandHits::processor.cores.core.data     74389632                       # number of demand (read+write) hits (Count)
system.cache_hierarchy.l1dcaches.demandHits::total     74389632                       # number of demand (read+write) hits (Count)
system.cache_hierarchy.l1dcaches.overallHits::processor.cores.core.data     74389632                       # number of overall hits (Count)
system.cache_hierarchy.l1dcaches.overallHits::total     74389632                       # number of overall hits (Count)
system.cache_hierarchy.l1dcaches.demandMisses::processor.cores.core.data       314440                       # number of demand (read+write) misses (Count)
system.cache_hierarchy.l1dcaches.demandMisses::total       314440                       # number of demand (read+write) misses (Count)
system.cache_hierarchy.l1dcaches.overallMisses::processor.cores.core.data       314440                       # number of overall misses (Count)
system.cache_hierarchy.l1dcaches.overallMisses::total       314440                       # number of overall misses (Count)
system.cache_hierarchy.l1dcaches.demandMissLatency::processor.cores.core.data   4963407999                       # number of demand (read+write) miss ticks (Tick)
system.cache_hierarchy.l1dcaches.demandMissLatency::total   4963407999                       # number of demand (read+write) miss ticks (Tick)
system.cache_hierarchy.l1dcaches.overallMissLatency::processor.cores.core.data   4963407999                       # number of overall miss ticks (Tick)
system.cache_hierarchy.l1dcaches.overallMissLatency::total   4963407999                       # number of overall miss ticks (Tick)
system.cache_hierarchy.l1dcaches.demandAccesses::processor.cores.core.data     74704072                       # number of demand (read+write) accesses (Count)
system.cache_hierarchy.l1dcaches.demandAccesses::total     74704072                       # number of demand (read+write) accesses (Count)
system.cache_hierarchy.l1dcaches.overallAccesses::processor.cores.core.data     74704072                       # number of overall (read+write) accesses (Count)
system.cache_hierarchy.l1dcaches.overallAccesses::total     74704072                       # number of overall (read+write) accesses (Count)
system.cache_hierarchy.l1dcaches.demandMissRate::processor.cores.core.data     0.004209                       # miss rate for demand accesses (Ratio)
system.cache_hierarchy.l1dcaches.demandMissRate::total     0.004209                       # miss rate for demand accesses (Ratio)
system.cache_hierarchy.l1dcaches.overallMissRate::processor.cores.core.data     0.004209                       # miss rate for overall accesses (Ratio)
system.cache_hierarchy.l1dcaches.overallMissRate::total     0.004209                       # miss rate for overall accesses (Ratio)
system.cache_hierarchy.l1dcaches.demandAvgMissLatency::processor.cores.core.data 15784.912858                       # average overall miss latency in ticks ((Tick/Count))
system.cache_hierarchy.l1dcaches.demandAvgMissLatency::total 15784.912858                       # average overall miss latency in ticks ((Tick/Count))
system.cache_hierarchy.l1dcaches.overallAvgMissLatency::processor.cores.core.data 15784.912858                       # average overall miss latency ((Tick/Count))
system.cache_hierarchy.l1dcaches.overallAvgMissLatency::total 15784.912858                       # average overall miss latency ((Tick/Count))
system.cache_hierarchy.l1dcaches.blockedCycles::no_mshrs          392                       # number of cycles access was blocked (Cycle)
system.cache_hierarchy.l1dcaches.blockedCycles::no_targets        67402                       # number of cycles access was blocked (Cycle)
system.cache_hierarchy.l1dcaches.blockedCauses::no_mshrs          142                       # number of times access was blocked (Count)
system.cache_hierarchy.l1dcaches.blockedCauses::no_targets        12302                       # number of times access was blocked (Count)
system.cache_hierarchy.l1dcaches.avgBlocked::no_mshrs     2.760563                       # average number of cycles each access was blocked ((Cycle/Count))
system.cache_hierarchy.l1dcaches.avgBlocked::no_targets     5.478947                       # average number of cycles each access was blocked ((Cycle/Count))
system.cache_hierarchy.l1dcaches.writebacks::writebacks        32586                       # number of writebacks (Count)
system.cache_hierarchy.l1dcaches.writebacks::total        32586                       # number of writebacks (Count)
system.cache_hierarchy.l1dcaches.demandMshrHits::processor.cores.core.data       282652                       # number of demand (read+write) MSHR hits (Count)
system.cache_hierarchy.l1dcaches.demandMshrHits::total       282652                       # number of demand (read+write) MSHR hits (Count)
system.cache_hierarchy.l1dcaches.overallMshrHits::processor.cores.core.data       282652                       # number of overall MSHR hits (Count)
system.cache_hierarchy.l1dcaches.overallMshrHits::total       282652                       # number of overall MSHR hits (Count)
system.cache_hierarchy.l1dcaches.demandMshrMisses::processor.cores.core.data        31788                       # number of demand (read+write) MSHR misses (Count)
system.cache_hierarchy.l1dcaches.demandMshrMisses::total        31788                       # number of demand (read+write) MSHR misses (Count)
system.cache_hierarchy.l1dcaches.overallMshrMisses::cache_hierarchy.l1dcaches.prefetcher        14446                       # number of overall MSHR misses (Count)
system.cache_hierarchy.l1dcaches.overallMshrMisses::processor.cores.core.data        31788                       # number of overall MSHR misses (Count)
system.cache_hierarchy.l1dcaches.overallMshrMisses::total        46234                       # number of overall MSHR misses (Count)
system.cache_hierarchy.l1dcaches.overallMshrUncacheable::processor.cores.core.data         6777                       # number of overall MSHR uncacheable misses (Count)
system.cache_hierarchy.l1dcaches.overallMshrUncacheable::total         6777                       # number of overall MSHR uncacheable misses (Count)
system.cache_hierarchy.l1dcaches.demandMshrMissLatency::processor.cores.core.data    640780000                       # number of demand (read+write) MSHR miss ticks (Tick)
system.cache_hierarchy.l1dcaches.demandMshrMissLatency::total    640780000                       # number of demand (read+write) MSHR miss ticks (Tick)
system.cache_hierarchy.l1dcaches.overallMshrMissLatency::cache_hierarchy.l1dcaches.prefetcher    301809301                       # number of overall MSHR miss ticks (Tick)
system.cache_hierarchy.l1dcaches.overallMshrMissLatency::processor.cores.core.data    640780000                       # number of overall MSHR miss ticks (Tick)
system.cache_hierarchy.l1dcaches.overallMshrMissLatency::total    942589301                       # number of overall MSHR miss ticks (Tick)
system.cache_hierarchy.l1dcaches.overallMshrUncacheableLatency::processor.cores.core.data    215934000                       # number of overall MSHR uncacheable ticks (Tick)
system.cache_hierarchy.l1dcaches.overallMshrUncacheableLatency::total    215934000                       # number of overall MSHR uncacheable ticks (Tick)
system.cache_hierarchy.l1dcaches.demandMshrMissRate::processor.cores.core.data     0.000426                       # mshr miss ratio for demand accesses (Ratio)
system.cache_hierarchy.l1dcaches.demandMshrMissRate::total     0.000426                       # mshr miss ratio for demand accesses (Ratio)
system.cache_hierarchy.l1dcaches.overallMshrMissRate::cache_hierarchy.l1dcaches.prefetcher          inf                       # mshr miss ratio for overall accesses (Ratio)
system.cache_hierarchy.l1dcaches.overallMshrMissRate::processor.cores.core.data     0.000426                       # mshr miss ratio for overall accesses (Ratio)
system.cache_hierarchy.l1dcaches.overallMshrMissRate::total     0.000619                       # mshr miss ratio for overall accesses (Ratio)
system.cache_hierarchy.l1dcaches.demandAvgMshrMissLatency::processor.cores.core.data 20157.921228                       # average overall mshr miss latency ((Tick/Count))
system.cache_hierarchy.l1dcaches.demandAvgMshrMissLatency::total 20157.921228                       # average overall mshr miss latency ((Tick/Count))
system.cache_hierarchy.l1dcaches.overallAvgMshrMissLatency::cache_hierarchy.l1dcaches.prefetcher 20892.240136                       # average overall mshr miss latency ((Tick/Count))
system.cache_hierarchy.l1dcaches.overallAvgMshrMissLatency::processor.cores.core.data 20157.921228                       # average overall mshr miss latency ((Tick/Count))
system.cache_hierarchy.l1dcaches.overallAvgMshrMissLatency::total 20387.362136                       # average overall mshr miss latency ((Tick/Count))
system.cache_hierarchy.l1dcaches.overallAvgMshrUncacheableLatency::processor.cores.core.data 31862.771138                       # average overall mshr uncacheable latency ((Tick/Count))
system.cache_hierarchy.l1dcaches.overallAvgMshrUncacheableLatency::total 31862.771138                       # average overall mshr uncacheable latency ((Tick/Count))
system.cache_hierarchy.l1dcaches.replacements        32586                       # number of replacements (Count)
system.cache_hierarchy.l1dcaches.HardPFReq.mshrMisses::cache_hierarchy.l1dcaches.prefetcher        14446                       # number of HardPFReq MSHR misses (Count)
system.cache_hierarchy.l1dcaches.HardPFReq.mshrMisses::total        14446                       # number of HardPFReq MSHR misses (Count)
system.cache_hierarchy.l1dcaches.HardPFReq.mshrMissLatency::cache_hierarchy.l1dcaches.prefetcher    301809301                       # number of HardPFReq MSHR miss ticks (Tick)
system.cache_hierarchy.l1dcaches.HardPFReq.mshrMissLatency::total    301809301                       # number of HardPFReq MSHR miss ticks (Tick)
system.cache_hierarchy.l1dcaches.HardPFReq.mshrMissRate::cache_hierarchy.l1dcaches.prefetcher          inf                       # mshr miss rate for HardPFReq accesses (Ratio)
system.cache_hierarchy.l1dcaches.HardPFReq.mshrMissRate::total          inf                       # mshr miss rate for HardPFReq accesses (Ratio)
system.cache_hierarchy.l1dcaches.HardPFReq.avgMshrMissLatency::cache_hierarchy.l1dcaches.prefetcher 20892.240136                       # average HardPFReq mshr miss latency ((Tick/Count))
system.cache_hierarchy.l1dcaches.HardPFReq.avgMshrMissLatency::total 20892.240136                       # average HardPFReq mshr miss latency ((Tick/Count))
system.cache_hierarchy.l1dcaches.ReadReq.hits::processor.cores.core.data     34686004                       # number of ReadReq hits (Count)
system.cache_hierarchy.l1dcaches.ReadReq.hits::total     34686004                       # number of ReadReq hits (Count)
system.cache_hierarchy.l1dcaches.ReadReq.misses::processor.cores.core.data        46007                       # number of ReadReq misses (Count)
system.cache_hierarchy.l1dcaches.ReadReq.misses::total        46007                       # number of ReadReq misses (Count)
system.cache_hierarchy.l1dcaches.ReadReq.missLatency::processor.cores.core.data    627647000                       # number of ReadReq miss ticks (Tick)
system.cache_hierarchy.l1dcaches.ReadReq.missLatency::total    627647000                       # number of ReadReq miss ticks (Tick)
system.cache_hierarchy.l1dcaches.ReadReq.accesses::processor.cores.core.data     34732011                       # number of ReadReq accesses(hits+misses) (Count)
system.cache_hierarchy.l1dcaches.ReadReq.accesses::total     34732011                       # number of ReadReq accesses(hits+misses) (Count)
system.cache_hierarchy.l1dcaches.ReadReq.missRate::processor.cores.core.data     0.001325                       # miss rate for ReadReq accesses (Ratio)
system.cache_hierarchy.l1dcaches.ReadReq.missRate::total     0.001325                       # miss rate for ReadReq accesses (Ratio)
system.cache_hierarchy.l1dcaches.ReadReq.avgMissLatency::processor.cores.core.data 13642.423979                       # average ReadReq miss latency ((Tick/Count))
system.cache_hierarchy.l1dcaches.ReadReq.avgMissLatency::total 13642.423979                       # average ReadReq miss latency ((Tick/Count))
system.cache_hierarchy.l1dcaches.ReadReq.mshrHits::processor.cores.core.data        31216                       # number of ReadReq MSHR hits (Count)
system.cache_hierarchy.l1dcaches.ReadReq.mshrHits::total        31216                       # number of ReadReq MSHR hits (Count)
system.cache_hierarchy.l1dcaches.ReadReq.mshrMisses::processor.cores.core.data        14791                       # number of ReadReq MSHR misses (Count)
system.cache_hierarchy.l1dcaches.ReadReq.mshrMisses::total        14791                       # number of ReadReq MSHR misses (Count)
system.cache_hierarchy.l1dcaches.ReadReq.mshrUncacheable::processor.cores.core.data         2377                       # number of ReadReq MSHR uncacheable (Count)
system.cache_hierarchy.l1dcaches.ReadReq.mshrUncacheable::total         2377                       # number of ReadReq MSHR uncacheable (Count)
system.cache_hierarchy.l1dcaches.ReadReq.mshrMissLatency::processor.cores.core.data    233550000                       # number of ReadReq MSHR miss ticks (Tick)
system.cache_hierarchy.l1dcaches.ReadReq.mshrMissLatency::total    233550000                       # number of ReadReq MSHR miss ticks (Tick)
system.cache_hierarchy.l1dcaches.ReadReq.mshrUncacheableLatency::processor.cores.core.data    215934000                       # number of ReadReq MSHR uncacheable ticks (Tick)
system.cache_hierarchy.l1dcaches.ReadReq.mshrUncacheableLatency::total    215934000                       # number of ReadReq MSHR uncacheable ticks (Tick)
system.cache_hierarchy.l1dcaches.ReadReq.mshrMissRate::processor.cores.core.data     0.000426                       # mshr miss rate for ReadReq accesses (Ratio)
system.cache_hierarchy.l1dcaches.ReadReq.mshrMissRate::total     0.000426                       # mshr miss rate for ReadReq accesses (Ratio)
system.cache_hierarchy.l1dcaches.ReadReq.avgMshrMissLatency::processor.cores.core.data 15790.007437                       # average ReadReq mshr miss latency ((Tick/Count))
system.cache_hierarchy.l1dcaches.ReadReq.avgMshrMissLatency::total 15790.007437                       # average ReadReq mshr miss latency ((Tick/Count))
system.cache_hierarchy.l1dcaches.ReadReq.avgMshrUncacheableLatency::processor.cores.core.data 90843.079512                       # average ReadReq mshr uncacheable latency ((Tick/Count))
system.cache_hierarchy.l1dcaches.ReadReq.avgMshrUncacheableLatency::total 90843.079512                       # average ReadReq mshr uncacheable latency ((Tick/Count))
system.cache_hierarchy.l1dcaches.SwapReq.hits::processor.cores.core.data      1125278                       # number of SwapReq hits (Count)
system.cache_hierarchy.l1dcaches.SwapReq.hits::total      1125278                       # number of SwapReq hits (Count)
system.cache_hierarchy.l1dcaches.SwapReq.misses::processor.cores.core.data          210                       # number of SwapReq misses (Count)
system.cache_hierarchy.l1dcaches.SwapReq.misses::total          210                       # number of SwapReq misses (Count)
system.cache_hierarchy.l1dcaches.SwapReq.missLatency::processor.cores.core.data     11382000                       # number of SwapReq miss ticks (Tick)
system.cache_hierarchy.l1dcaches.SwapReq.missLatency::total     11382000                       # number of SwapReq miss ticks (Tick)
system.cache_hierarchy.l1dcaches.SwapReq.accesses::processor.cores.core.data      1125488                       # number of SwapReq accesses(hits+misses) (Count)
system.cache_hierarchy.l1dcaches.SwapReq.accesses::total      1125488                       # number of SwapReq accesses(hits+misses) (Count)
system.cache_hierarchy.l1dcaches.SwapReq.missRate::processor.cores.core.data     0.000187                       # miss rate for SwapReq accesses (Ratio)
system.cache_hierarchy.l1dcaches.SwapReq.missRate::total     0.000187                       # miss rate for SwapReq accesses (Ratio)
system.cache_hierarchy.l1dcaches.SwapReq.avgMissLatency::processor.cores.core.data        54200                       # average SwapReq miss latency ((Tick/Count))
system.cache_hierarchy.l1dcaches.SwapReq.avgMissLatency::total        54200                       # average SwapReq miss latency ((Tick/Count))
system.cache_hierarchy.l1dcaches.SwapReq.mshrMisses::processor.cores.core.data          210                       # number of SwapReq MSHR misses (Count)
system.cache_hierarchy.l1dcaches.SwapReq.mshrMisses::total          210                       # number of SwapReq MSHR misses (Count)
system.cache_hierarchy.l1dcaches.SwapReq.mshrMissLatency::processor.cores.core.data     11172000                       # number of SwapReq MSHR miss ticks (Tick)
system.cache_hierarchy.l1dcaches.SwapReq.mshrMissLatency::total     11172000                       # number of SwapReq MSHR miss ticks (Tick)
system.cache_hierarchy.l1dcaches.SwapReq.mshrMissRate::processor.cores.core.data     0.000187                       # mshr miss rate for SwapReq accesses (Ratio)
system.cache_hierarchy.l1dcaches.SwapReq.mshrMissRate::total     0.000187                       # mshr miss rate for SwapReq accesses (Ratio)
system.cache_hierarchy.l1dcaches.SwapReq.avgMshrMissLatency::processor.cores.core.data        53200                       # average SwapReq mshr miss latency ((Tick/Count))
system.cache_hierarchy.l1dcaches.SwapReq.avgMshrMissLatency::total        53200                       # average SwapReq mshr miss latency ((Tick/Count))
system.cache_hierarchy.l1dcaches.WriteReq.hits::processor.cores.core.data     39703628                       # number of WriteReq hits (Count)
system.cache_hierarchy.l1dcaches.WriteReq.hits::total     39703628                       # number of WriteReq hits (Count)
system.cache_hierarchy.l1dcaches.WriteReq.misses::processor.cores.core.data       268433                       # number of WriteReq misses (Count)
system.cache_hierarchy.l1dcaches.WriteReq.misses::total       268433                       # number of WriteReq misses (Count)
system.cache_hierarchy.l1dcaches.WriteReq.missLatency::processor.cores.core.data   4335760999                       # number of WriteReq miss ticks (Tick)
system.cache_hierarchy.l1dcaches.WriteReq.missLatency::total   4335760999                       # number of WriteReq miss ticks (Tick)
system.cache_hierarchy.l1dcaches.WriteReq.accesses::processor.cores.core.data     39972061                       # number of WriteReq accesses(hits+misses) (Count)
system.cache_hierarchy.l1dcaches.WriteReq.accesses::total     39972061                       # number of WriteReq accesses(hits+misses) (Count)
system.cache_hierarchy.l1dcaches.WriteReq.missRate::processor.cores.core.data     0.006716                       # miss rate for WriteReq accesses (Ratio)
system.cache_hierarchy.l1dcaches.WriteReq.missRate::total     0.006716                       # miss rate for WriteReq accesses (Ratio)
system.cache_hierarchy.l1dcaches.WriteReq.avgMissLatency::processor.cores.core.data 16152.116167                       # average WriteReq miss latency ((Tick/Count))
system.cache_hierarchy.l1dcaches.WriteReq.avgMissLatency::total 16152.116167                       # average WriteReq miss latency ((Tick/Count))
system.cache_hierarchy.l1dcaches.WriteReq.mshrHits::processor.cores.core.data       251436                       # number of WriteReq MSHR hits (Count)
system.cache_hierarchy.l1dcaches.WriteReq.mshrHits::total       251436                       # number of WriteReq MSHR hits (Count)
system.cache_hierarchy.l1dcaches.WriteReq.mshrMisses::processor.cores.core.data        16997                       # number of WriteReq MSHR misses (Count)
system.cache_hierarchy.l1dcaches.WriteReq.mshrMisses::total        16997                       # number of WriteReq MSHR misses (Count)
system.cache_hierarchy.l1dcaches.WriteReq.mshrUncacheable::processor.cores.core.data         4400                       # number of WriteReq MSHR uncacheable (Count)
system.cache_hierarchy.l1dcaches.WriteReq.mshrUncacheable::total         4400                       # number of WriteReq MSHR uncacheable (Count)
system.cache_hierarchy.l1dcaches.WriteReq.mshrMissLatency::processor.cores.core.data    407230000                       # number of WriteReq MSHR miss ticks (Tick)
system.cache_hierarchy.l1dcaches.WriteReq.mshrMissLatency::total    407230000                       # number of WriteReq MSHR miss ticks (Tick)
system.cache_hierarchy.l1dcaches.WriteReq.mshrMissRate::processor.cores.core.data     0.000425                       # mshr miss rate for WriteReq accesses (Ratio)
system.cache_hierarchy.l1dcaches.WriteReq.mshrMissRate::total     0.000425                       # mshr miss rate for WriteReq accesses (Ratio)
system.cache_hierarchy.l1dcaches.WriteReq.avgMshrMissLatency::processor.cores.core.data 23958.933930                       # average WriteReq mshr miss latency ((Tick/Count))
system.cache_hierarchy.l1dcaches.WriteReq.avgMshrMissLatency::total 23958.933930                       # average WriteReq mshr miss latency ((Tick/Count))
system.cache_hierarchy.l1dcaches.power_state.pwrStateResidencyTicks::UNDEFINED 286054770000                       # Cumulative time (in ticks) in various power states (Tick)
system.cache_hierarchy.l1dcaches.prefetcher.demandMshrMisses        31788                       # demands not covered by prefetchs (Count)
system.cache_hierarchy.l1dcaches.prefetcher.pfIssued       648733                       # number of hwpf issued (Count)
system.cache_hierarchy.l1dcaches.prefetcher.pfUnused         2416                       # number of HardPF blocks evicted w/o reference (Count)
system.cache_hierarchy.l1dcaches.prefetcher.pfUseful       121342                       # number of useful prefetch (Count)
system.cache_hierarchy.l1dcaches.prefetcher.pfUsefulButMiss       109782                       # number of hit on prefetch but cache block is not in an usable state (Count)
system.cache_hierarchy.l1dcaches.prefetcher.accuracy     0.187045                       # accuracy of the prefetcher (Count)
system.cache_hierarchy.l1dcaches.prefetcher.coverage     0.792412                       # coverage brought by this prefetcher (Count)
system.cache_hierarchy.l1dcaches.prefetcher.pfHitInCache       572613                       # number of prefetches hitting in cache (Count)
system.cache_hierarchy.l1dcaches.prefetcher.pfHitInMSHR        61674                       # number of prefetches hitting in a MSHR (Count)
system.cache_hierarchy.l1dcaches.prefetcher.pfHitInWB            0                       # number of prefetches hit in the Write Buffer (Count)
system.cache_hierarchy.l1dcaches.prefetcher.pfLate       634287                       # number of late prefetches (hitting in cache, MSHR or WB) (Count)
system.cache_hierarchy.l1dcaches.prefetcher.pfIdentified      1086581                       # number of prefetch candidates identified (Count)
system.cache_hierarchy.l1dcaches.prefetcher.pfBufferHit       410334                       # number of redundant prefetches already in prefetch queue (Count)
system.cache_hierarchy.l1dcaches.prefetcher.pfInCache            0                       # number of redundant prefetches already in cache/mshr dropped (Count)
system.cache_hierarchy.l1dcaches.prefetcher.pfRemovedDemand          703                       # number of prefetches dropped due to a demand for the same address (Count)
system.cache_hierarchy.l1dcaches.prefetcher.pfRemovedFull            0                       # number of prefetches dropped due to prefetch queue size (Count)
system.cache_hierarchy.l1dcaches.prefetcher.pfSpanPage        49015                       # number of prefetches that crossed the page (Count)
system.cache_hierarchy.l1dcaches.prefetcher.pfUsefulSpanPage        18825                       # number of prefetches that is useful and crossed the page (Count)
system.cache_hierarchy.l1dcaches.prefetcher.power_state.pwrStateResidencyTicks::UNDEFINED 286054770000                       # Cumulative time (in ticks) in various power states (Tick)
system.cache_hierarchy.l1dcaches.tags.tagsInUse   511.963033                       # Average ticks per tags in use ((Tick/Count))
system.cache_hierarchy.l1dcaches.tags.totalRefs     86076012                       # Total number of references to valid blocks. (Count)
system.cache_hierarchy.l1dcaches.tags.sampledRefs        32735                       # Sample count of references to valid blocks. (Count)
system.cache_hierarchy.l1dcaches.tags.avgRefs  2629.479517                       # Average number of references to valid blocks. ((Count/Count))
system.cache_hierarchy.l1dcaches.tags.warmupTick            0                       # The tick when the warmup percentage was hit. (Tick)
system.cache_hierarchy.l1dcaches.tags.occupancies::cache_hierarchy.l1dcaches.prefetcher   186.506803                       # Average occupied blocks per tick, per requestor ((Count/Tick))
system.cache_hierarchy.l1dcaches.tags.occupancies::processor.cores.core.data   325.456230                       # Average occupied blocks per tick, per requestor ((Count/Tick))
system.cache_hierarchy.l1dcaches.tags.avgOccs::cache_hierarchy.l1dcaches.prefetcher     0.364271                       # Average percentage of cache occupancy ((Ratio/Tick))
system.cache_hierarchy.l1dcaches.tags.avgOccs::processor.cores.core.data     0.635657                       # Average percentage of cache occupancy ((Ratio/Tick))
system.cache_hierarchy.l1dcaches.tags.avgOccs::total     0.999928                       # Average percentage of cache occupancy ((Ratio/Tick))
system.cache_hierarchy.l1dcaches.tags.occupanciesTaskId::1022           98                       # Occupied blocks per task id (Count)
system.cache_hierarchy.l1dcaches.tags.occupanciesTaskId::1024          414                       # Occupied blocks per task id (Count)
system.cache_hierarchy.l1dcaches.tags.ageTaskId_1022::1            8                       # Occupied blocks per task id, per block age (Count)
system.cache_hierarchy.l1dcaches.tags.ageTaskId_1022::2           19                       # Occupied blocks per task id, per block age (Count)
system.cache_hierarchy.l1dcaches.tags.ageTaskId_1022::3           66                       # Occupied blocks per task id, per block age (Count)
system.cache_hierarchy.l1dcaches.tags.ageTaskId_1022::4            5                       # Occupied blocks per task id, per block age (Count)
system.cache_hierarchy.l1dcaches.tags.ageTaskId_1024::0           62                       # Occupied blocks per task id, per block age (Count)
system.cache_hierarchy.l1dcaches.tags.ageTaskId_1024::1          176                       # Occupied blocks per task id, per block age (Count)
system.cache_hierarchy.l1dcaches.tags.ageTaskId_1024::2            4                       # Occupied blocks per task id, per block age (Count)
system.cache_hierarchy.l1dcaches.tags.ageTaskId_1024::3          140                       # Occupied blocks per task id, per block age (Count)
system.cache_hierarchy.l1dcaches.tags.ageTaskId_1024::4           32                       # Occupied blocks per task id, per block age (Count)
system.cache_hierarchy.l1dcaches.tags.ratioOccsTaskId::1022     0.191406                       # Ratio of occupied blocks and all blocks, per task id (Ratio)
system.cache_hierarchy.l1dcaches.tags.ratioOccsTaskId::1024     0.808594                       # Ratio of occupied blocks and all blocks, per task id (Ratio)
system.cache_hierarchy.l1dcaches.tags.tagAccesses    606669217                       # Number of tag accesses (Count)
system.cache_hierarchy.l1dcaches.tags.dataAccesses    606669217                       # Number of data accesses (Count)
system.cache_hierarchy.l1dcaches.tags.power_state.pwrStateResidencyTicks::UNDEFINED 286054770000                       # Cumulative time (in ticks) in various power states (Tick)
system.cache_hierarchy.l1icaches.demandHits::processor.cores.core.inst     58137448                       # number of demand (read+write) hits (Count)
system.cache_hierarchy.l1icaches.demandHits::total     58137448                       # number of demand (read+write) hits (Count)
system.cache_hierarchy.l1icaches.overallHits::processor.cores.core.inst     58137448                       # number of overall hits (Count)
system.cache_hierarchy.l1icaches.overallHits::total     58137448                       # number of overall hits (Count)
system.cache_hierarchy.l1icaches.demandMisses::processor.cores.core.inst        35755                       # number of demand (read+write) misses (Count)
[...]
system.processor.cores.core.fetch.squashCycles      2686900                       # Number of cycles fetch has spent squashing (Cycle)
system.processor.cores.core.fetch.tlbCycles        37304                       # Number of cycles fetch has spent waiting for tlb (Cycle)
system.processor.cores.core.fetch.miscStallCycles        31645                       # Number of cycles fetch has spent waiting on interrupts, or bad addresses, or out of MSHRs (Cycle)
system.processor.cores.core.fetch.pendingTrapStallCycles        24394                       # Number of stall cycles due to pending traps (Cycle)
system.processor.cores.core.fetch.cacheLines     58173203                       # Number of cache lines fetched (Count)
system.processor.cores.core.fetch.icacheSquashes        16119                       # Number of outstanding Icache misses that were squashed (Count)
system.processor.cores.core.fetch.tlbSquashes          751                       # Number of outstanding ITLB misses that were squashed (Count)
system.processor.cores.core.fetch.nisnDist::samples    169541653                       # Number of instructions fetched each cycle (Total) (Count)
system.processor.cores.core.fetch.nisnDist::mean     2.127896                       # Number of instructions fetched each cycle (Total) (Count)
system.processor.cores.core.fetch.nisnDist::stdev     2.897985                       # Number of instructions fetched each cycle (Total) (Count)
system.processor.cores.core.fetch.nisnDist::underflows            0      0.00%      0.00% # Number of instructions fetched each cycle (Total) (Count)
system.processor.cores.core.fetch.nisnDist::0     94241195     55.59%     55.59% # Number of instructions fetched each cycle (Total) (Count)
system.processor.cores.core.fetch.nisnDist::1      9648449      5.69%     61.28% # Number of instructions fetched each cycle (Total) (Count)
system.processor.cores.core.fetch.nisnDist::2      9109265      5.37%     66.65% # Number of instructions fetched each cycle (Total) (Count)
system.processor.cores.core.fetch.nisnDist::3      5022270      2.96%     69.61% # Number of instructions fetched each cycle (Total) (Count)
system.processor.cores.core.fetch.nisnDist::4     13374610      7.89%     77.50% # Number of instructions fetched each cycle (Total) (Count)
system.processor.cores.core.fetch.nisnDist::5      5910165      3.49%     80.99% # Number of instructions fetched each cycle (Total) (Count)
system.processor.cores.core.fetch.nisnDist::6     10972732      6.47%     87.46% # Number of instructions fetched each cycle (Total) (Count)
system.processor.cores.core.fetch.nisnDist::7      1156180      0.68%     88.14% # Number of instructions fetched each cycle (Total) (Count)
system.processor.cores.core.fetch.nisnDist::8     20106787     11.86%    100.00% # Number of instructions fetched each cycle (Total) (Count)
system.processor.cores.core.fetch.nisnDist::overflows            0      0.00%    100.00% # Number of instructions fetched each cycle (Total) (Count)
system.processor.cores.core.fetch.nisnDist::min_value            0                       # Number of instructions fetched each cycle (Total) (Count)
system.processor.cores.core.fetch.nisnDist::max_value            8                       # Number of instructions fetched each cycle (Total) (Count)
system.processor.cores.core.fetch.nisnDist::total    169541653                       # Number of instructions fetched each cycle (Total) (Count)
system.processor.cores.core.fetch.branchRate     0.332728                       # Number of branch fetches per cycle (Ratio)
system.processor.cores.core.fetch.rate       2.122833                       # Number of inst fetches per cycle ((Count/Cycle))
system.processor.cores.core.iew.idleCycles            0                       # Number of cycles IEW is idle (Cycle)
system.processor.cores.core.iew.squashCycles      1332930                       # Number of cycles IEW is squashing (Cycle)
system.processor.cores.core.iew.blockCycles      5737943                       # Number of cycles IEW is blocking (Cycle)
system.processor.cores.core.iew.unblockCycles        14323                       # Number of cycles IEW is unblocking (Cycle)
system.processor.cores.core.iew.dispatchedInsts    299164521                       # Number of instructions dispatched to IQ (Count)
system.processor.cores.core.iew.dispSquashedInsts        18229                       # Number of squashed instructions skipped by dispatch (Count)
system.processor.cores.core.iew.dispLoadInsts     58399654                       # Number of dispatched load instructions (Count)
system.processor.cores.core.iew.dispStoreInsts     48760056                       # Number of dispatched store instructions (Count)
system.processor.cores.core.iew.dispNonSpecInsts      7442715                       # Number of dispatched non-speculative instructions (Count)
system.processor.cores.core.iew.iqFullEvents         2999                       # Number of times the IQ has become full, causing a stall (Count)
system.processor.cores.core.iew.lsqFullEvents         8529                       # Number of times the LSQ has become full, causing a stall (Count)
system.processor.cores.core.iew.memOrderViolationEvents      1156779                       # Number of memory order violations (Count)
system.processor.cores.core.iew.predictedTakenIncorrect        90081                       # Number of branches that were predicted taken incorrectly (Count)
system.processor.cores.core.iew.predictedNotTakenIncorrect       171177                       # Number of branches that were predicted not taken incorrectly (Count)
system.processor.cores.core.iew.branchMispredicts       261258                       # Number of branch mispredicts detected at execute (Count)
system.processor.cores.core.iew.instsToCommit    281436696                       # Cumulative count of insts sent to commit (Count)
system.processor.cores.core.iew.writebackCount    281315512                       # Cumulative count of insts written-back (Count)
system.processor.cores.core.iew.producerInst    179548688                       # Number of instructions producing a value (Count)
system.processor.cores.core.iew.consumerInst    271647578                       # Number of instructions consuming a value (Count)
system.processor.cores.core.iew.wbRate       1.657984                       # Insts written-back per cycle ((Count/Cycle))
system.processor.cores.core.iew.wbFanout     0.660962                       # Average fanout of values written-back ((Count/Count))
system.processor.cores.core.lsq0.forwLoads     18927958                       # Number of loads that had data forwarded from stores (Count)
system.processor.cores.core.lsq0.squashedLoads     12592256                       # Number of loads squashed (Count)
system.processor.cores.core.lsq0.ignoredResponses         1701                       # Number of memory responses ignored because the instruction is squashed (Count)
system.processor.cores.core.lsq0.memOrderViolation      1156779                       # Number of memory ordering violations (Count)
system.processor.cores.core.lsq0.squashedStores      7658107                       # Number of stores squashed (Count)
system.processor.cores.core.lsq0.rescheduledLoads         7356                       # Number of loads that were rescheduled (Count)
system.processor.cores.core.lsq0.blockedByCache        12317                       # Number of times an access to memory failed due to the cache being blocked (Count)
system.processor.cores.core.lsq0.loadToUse::samples     45807398                       # Distribution of cycle latency between the first time a load is issued and its completion (Unspecified)
system.processor.cores.core.lsq0.loadToUse::mean     2.300598                       # Distribution of cycle latency between the first time a load is issued and its completion (Unspecified)
system.processor.cores.core.lsq0.loadToUse::stdev     1.147754                       # Distribution of cycle latency between the first time a load is issued and its completion (Unspecified)
system.processor.cores.core.lsq0.loadToUse::0-9     45766108     99.91%     99.91% # Distribution of cycle latency between the first time a load is issued and its completion (Unspecified)
system.processor.cores.core.lsq0.loadToUse::10-19        32122      0.07%     99.98% # Distribution of cycle latency between the first time a load is issued and its completion (Unspecified)
system.processor.cores.core.lsq0.loadToUse::20-29         1898      0.00%     99.98% # Distribution of cycle latency between the first time a load is issued and its completion (Unspecified)
system.processor.cores.core.lsq0.loadToUse::30-39          843      0.00%     99.99% # Distribution of cycle latency between the first time a load is issued and its completion (Unspecified)
system.processor.cores.core.lsq0.loadToUse::40-49         1036      0.00%     99.99% # Distribution of cycle latency between the first time a load is issued and its completion (Unspecified)
system.processor.cores.core.lsq0.loadToUse::50-59         1795      0.00%     99.99% # Distribution of cycle latency between the first time a load is issued and its completion (Unspecified)
system.processor.cores.core.lsq0.loadToUse::60-69         1759      0.00%    100.00% # Distribution of cycle latency between the first time a load is issued and its completion (Unspecified)
system.processor.cores.core.lsq0.loadToUse::70-79          418      0.00%    100.00% # Distribution of cycle latency between the first time a load is issued and its completion (Unspecified)
system.processor.cores.core.lsq0.loadToUse::80-89           54      0.00%    100.00% # Distribution of cycle latency between the first time a load is issued and its completion (Unspecified)
system.processor.cores.core.lsq0.loadToUse::90-99           16      0.00%    100.00% # Distribution of cycle latency between the first time a load is issued and its completion (Unspecified)
system.processor.cores.core.lsq0.loadToUse::100-109            3      0.00%    100.00% # Distribution of cycle latency between the first time a load is issued and its completion (Unspecified)
system.processor.cores.core.lsq0.loadToUse::110-119            4      0.00%    100.00% # Distribution of cycle latency between the first time a load is issued and its completion (Unspecified)
system.processor.cores.core.lsq0.loadToUse::120-129            1      0.00%    100.00% # Distribution of cycle latency between the first time a load is issued and its completion (Unspecified)
system.processor.cores.core.lsq0.loadToUse::130-139         1206      0.00%    100.00% # Distribution of cycle latency between the first time a load is issued and its completion (Unspecified)
system.processor.cores.core.lsq0.loadToUse::140-149            2      0.00%    100.00% # Distribution of cycle latency between the first time a load is issued and its completion (Unspecified)
system.processor.cores.core.lsq0.loadToUse::150-159           12      0.00%    100.00% # Distribution of cycle latency between the first time a load is issued and its completion (Unspecified)
system.processor.cores.core.lsq0.loadToUse::160-169           60      0.00%    100.00% # Distribution of cycle latency between the first time a load is issued and its completion (Unspecified)
system.processor.cores.core.lsq0.loadToUse::180-189           12      0.00%    100.00% # Distribution of cycle latency between the first time a load is issued and its completion (Unspecified)
system.processor.cores.core.lsq0.loadToUse::190-199            1      0.00%    100.00% # Distribution of cycle latency between the first time a load is issued and its completion (Unspecified)
system.processor.cores.core.lsq0.loadToUse::200-209            1      0.00%    100.00% # Distribution of cycle latency between the first time a load is issued and its completion (Unspecified)
system.processor.cores.core.lsq0.loadToUse::220-229           14      0.00%    100.00% # Distribution of cycle latency between the first time a load is issued and its completion (Unspecified)
system.processor.cores.core.lsq0.loadToUse::230-239            1      0.00%    100.00% # Distribution of cycle latency between the first time a load is issued and its completion (Unspecified)
system.processor.cores.core.lsq0.loadToUse::240-249           10      0.00%    100.00% # Distribution of cycle latency between the first time a load is issued and its completion (Unspecified)
system.processor.cores.core.lsq0.loadToUse::270-279            6      0.00%    100.00% # Distribution of cycle latency between the first time a load is issued and its completion (Unspecified)
system.processor.cores.core.lsq0.loadToUse::280-289            9      0.00%    100.00% # Distribution of cycle latency between the first time a load is issued and its completion (Unspecified)
system.processor.cores.core.lsq0.loadToUse::290-299            1      0.00%    100.00% # Distribution of cycle latency between the first time a load is issued and its completion (Unspecified)
system.processor.cores.core.lsq0.loadToUse::overflows            6      0.00%    100.00% # Distribution of cycle latency between the first time a load is issued and its completion (Unspecified)
system.processor.cores.core.lsq0.loadToUse::min_value            2                       # Distribution of cycle latency between the first time a load is issued and its completion (Unspecified)
system.processor.cores.core.lsq0.loadToUse::max_value          316                       # Distribution of cycle latency between the first time a load is issued and its completion (Unspecified)
system.processor.cores.core.lsq0.loadToUse::total     45807398                       # Distribution of cycle latency between the first time a load is issued and its completion (Unspecified)
system.processor.cores.core.mmu.dtb.readHits     53671048                       # read hits (Count)
system.processor.cores.core.mmu.dtb.readMisses        16251                       # read misses (Count)
system.processor.cores.core.mmu.dtb.readAccesses     53687299                       # read accesses (Count)
system.processor.cores.core.mmu.dtb.writeHits     43239852                       # write hits (Count)
system.processor.cores.core.mmu.dtb.writeMisses         4057                       # write misses (Count)
system.processor.cores.core.mmu.dtb.writeAccesses     43243909                       # write accesses (Count)
system.processor.cores.core.mmu.dtb.hits     96910900                       # Total TLB (read and write) hits (Count)
system.processor.cores.core.mmu.dtb.misses        20308                       # Total TLB (read and write) misses (Count)
system.processor.cores.core.mmu.dtb.accesses     96931208                       # Total TLB (read and write) accesses (Count)
system.processor.cores.core.mmu.dtb.walker.power_state.pwrStateResidencyTicks::UNDEFINED 286054770000                       # Cumulative time (in ticks) in various power states (Tick)
system.processor.cores.core.mmu.itb.readHits     58173798                       # read hits (Count)
system.processor.cores.core.mmu.itb.readMisses         9232                       # read misses (Count)
system.processor.cores.core.mmu.itb.readAccesses     58183030                       # read accesses (Count)
system.processor.cores.core.mmu.itb.writeHits            0                       # write hits (Count)
system.processor.cores.core.mmu.itb.writeMisses            0                       # write misses (Count)
system.processor.cores.core.mmu.itb.writeAccesses            0                       # write accesses (Count)
system.processor.cores.core.mmu.itb.hits     58173798                       # Total TLB (read and write) hits (Count)
system.processor.cores.core.mmu.itb.misses         9232                       # Total TLB (read and write) misses (Count)
system.processor.cores.core.mmu.itb.accesses     58183030                       # Total TLB (read and write) accesses (Count)
system.processor.cores.core.mmu.itb.walker.power_state.pwrStateResidencyTicks::UNDEFINED 286054770000                       # Cumulative time (in ticks) in various power states (Tick)
system.processor.cores.core.power_state.pwrStateResidencyTicks::ON 286054770000                       # Cumulative time (in ticks) in various power states (Tick)
system.processor.cores.core.rename.squashCycles      1332930                       # Number of cycles rename is squashing (Cycle)
system.processor.cores.core.rename.idleCycles     10542971                       # Number of cycles rename is idle (Cycle)
system.processor.cores.core.rename.blockCycles      5822933                       # Number of cycles rename is blocking (Cycle)
system.processor.cores.core.rename.serializeStallCycles    102804031                       # count of cycles rename stalled for serializing inst (Cycle)
system.processor.cores.core.rename.runCycles     41282443                       # Number of cycles rename is running (Cycle)
system.processor.cores.core.rename.unblockCycles      7756345                       # Number of cycles rename is unblocking (Cycle)
system.processor.cores.core.rename.renamedInsts    300629500                       # Number of instructions processed by rename (Count)
system.processor.cores.core.rename.ROBFullEvents          298                       # Number of times rename has blocked due to ROB full (Count)
system.processor.cores.core.rename.IQFullEvents      1691052                       # Number of times rename has blocked due to IQ full (Count)
system.processor.cores.core.rename.LQFullEvents       184855                       # Number of times rename has blocked due to LQ full (Count)
system.processor.cores.core.rename.SQFullEvents       151965                       # Number of times rename has blocked due to SQ full (Count)
system.processor.cores.core.rename.renamedOperands    220343372                       # Number of destination operands rename has renamed (Count)
system.processor.cores.core.rename.lookups    339471833                       # Number of register rename lookups that rename has made (Count)
system.processor.cores.core.rename.intLookups    330043891                       # Number of integer rename lookups (Count)
system.processor.cores.core.rename.fpLookups        47589                       # Number of floating rename lookups (Count)
system.processor.cores.core.rename.committedMaps    183137871                       # Number of HB maps that are committed (Count)
system.processor.cores.core.rename.undoneMaps     37205501                       # Number of HB maps that are undone due to squashing (Count)
system.processor.cores.core.rename.serializing      5744400                       # count of serializing insts renamed (Count)
system.processor.cores.core.rename.tempSerializing      5752532                       # count of temporary serializing insts renamed (Count)
system.processor.cores.core.rename.skidInsts     32520173                       # count of insts added to the skid buffer (Count)
system.processor.cores.core.rob.reads       448224740                       # The number of ROB reads (Count)
system.processor.cores.core.rob.writes      605209050                       # The number of ROB writes (Count)
system.processor.cores.core.thread_0.numInsts    248553841                       # Number of Instructions committed (Count)
system.processor.cores.core.thread_0.numOps    249116579                       # Number of Ops committed (Count)
system.processor.cores.core.thread_0.numMemRefs            0                       # Number of Memory References (Count)
system.workload.inst.arm                            0                       # number of arm instructions executed (Count)
system.workload.inst.quiesce                        0                       # number of quiesce instructions executed (Count)

---------- End Simulation Statistics   ----------
