
---------- Begin Simulation Statistics ----------
simSeconds                                   0.003544                       # Number of seconds simulated (Second)
simTicks                                   3543869000                       # Number of ticks simulated (Tick)
finalTick                                119334698000                       # Number of ticks from beginning of simulation (restored from checkpoints and never reset) (Tick)
simFreq                                  1000000000000                       # The number of ticks per simulated second ((Tick/Second))
hostSeconds                                     15.43                       # Real time elapsed on the host (Second)
hostTickRate                                229629512                       # The number of ticks simulated per host second (ticks/s) ((Tick/Second))
hostMemory                                     158456                       # Number of bytes of host memory used (Byte)
simInsts                                    166913526                       # Number of instructions simulated (Count)
simOps                                      167314924                       # Number of ops (including micro ops) simulated (Count)
hostInstRate                                 10815303                       # Simulator instruction rate (inst/s) ((Count/Second))
hostOpRate                                   10841306                       # Simulator op (including micro ops) rate (op/s) ((Count/Second))
system.bridge.power_state.pwrStateResidencyTicks::UNDEFINED 119334698000                       # Cumulative time (in ticks) in various power states (Tick)
system.cache_hierarchy.dptw_caches.demandHits::processor.cores.core.mmu.dtb.walker         2183                       # number of demand (read+write) hits (Count)
system.cache_hierarchy.dptw_caches.demandHits::total         2183                       # number of demand (read+write) hits (Count)
system.cache_hierarchy.dptw_caches.overallHits::processor.cores.core.mmu.dtb.walker         2183                       # number of overall hits (Count)
system.cache_hierarchy.dptw_caches.overallHits::total         2183                       # number of overall hits (Count)
system.cache_hierarchy.dptw_caches.demandMisses::processor.cores.core.mmu.dtb.walker          210                       # number of demand (read+write) misses (Count)
system.cache_hierarchy.dptw_caches.demandMisses::total          210                       # number of demand (read+write) misses (Count)
system.cache_hierarchy.dptw_caches.overallMisses::processor.cores.core.mmu.dtb.walker          210                       # number of overall misses (Count)
system.cache_hierarchy.dptw_caches.overallMisses::total          210                       # number of overall misses (Count)
system.cache_hierarchy.dptw_caches.demandMissLatency::processor.cores.core.mmu.dtb.walker      3110000                       # number of demand (read+write) miss ticks (Tick)
system.cache_hierarchy.dptw_caches.demandMissLatency::total      3110000                       # number of demand (read+write) miss ticks (Tick)
system.cache_hierarchy.dptw_caches.overallMissLatency::processor.cores.core.mmu.dtb.walker      3110000                       # number of overall miss ticks (Tick)
system.cache_hierarchy.dptw_caches.overallMissLatency::total      3110000                       # number of overall miss ticks (Tick)
system.cache_hierarchy.dptw_caches.demandAccesses::processor.cores.core.mmu.dtb.walker         2393                       # number of demand (read+write) accesses (Count)
system.cache_hierarchy.dptw_caches.demandAccesses::total         2393                       # number of demand (read+write) accesses (Count)
system.cache_hierarchy.dptw_caches.overallAccesses::processor.cores.core.mmu.dtb.walker         2393                       # number of overall (read+write) accesses (Count)
system.cache_hierarchy.dptw_caches.overallAccesses::total         2393                       # number of overall (read+write) accesses (Count)
system.cache_hierarchy.dptw_caches.demandMissRate::processor.cores.core.mmu.dtb.walker     0.087756                       # miss rate for demand accesses (Ratio)
system.cache_hierarchy.dptw_caches.demandMissRate::total     0.087756                       # miss rate for demand accesses (Ratio)
system.cache_hierarchy.dptw_caches.overallMissRate::processor.cores.core.mmu.dtb.walker     0.087756                       # miss rate for overall accesses (Ratio)
system.cache_hierarchy.dptw_caches.overallMissRate::total     0.087756                       # miss rate for overall accesses (Ratio)
system.cache_hierarchy.dptw_caches.demandAvgMissLatency::processor.cores.core.mmu.dtb.walker 14809.523810                       # average overall miss latency in ticks ((Tick/Count))
system.cache_hierarchy.dptw_caches.demandAvgMissLatency::total 14809.523810                       # average overall miss latency in ticks ((Tick/Count))
system.cache_hierarchy.dptw_caches.overallAvgMissLatency::processor.cores.core.mmu.dtb.walker 14809.523810                       # average overall miss latency ((Tick/Count))
system.cache_hierarchy.dptw_caches.overallAvgMissLatency::total 14809.523810                       # average overall miss latency ((Tick/Count))
system.cache_hierarchy.dptw_caches.blockedCycles::no_mshrs            0                       # number of cycles access was blocked (Cycle)
system.cache_hierarchy.dptw_caches.blockedCycles::no_targets            0                       # number of cycles access was blocked (Cycle)
system.cache_hierarchy.dptw_caches.blockedCauses::no_mshrs            0                       # number of times access was blocked (Count)
system.cache_hierarchy.dptw_caches.blockedCauses::no_targets            0                       # number of times access was blocked (Count)
system.cache_hierarchy.dptw_caches.avgBlocked::no_mshrs          nan                       # average number of cycles each access was blocked ((Cycle/Count))
system.cache_hierarchy.dptw_caches.avgBlocked::no_targets          nan                       # average number of cycles each access was blocked ((Cycle/Count))
system.cache_hierarchy.dptw_caches.writebacks::writebacks          208                       # number of writebacks (Count)
system.cache_hierarchy.dptw_caches.writebacks::total          208                       # number of writebacks (Count)
system.cache_hierarchy.dptw_caches.demandMshrMisses::processor.cores.core.mmu.dtb.walker          210                       # number of demand (read+write) MSHR misses (Count)
system.cache_hierarchy.dptw_caches.demandMshrMisses::total          210                       # number of demand (read+write) MSHR misses (Count)
system.cache_hierarchy.dptw_caches.overallMshrMisses::processor.cores.core.mmu.dtb.walker          210                       # number of overall MSHR misses (Count)
system.cache_hierarchy.dptw_caches.overallMshrMisses::total          210                       # number of overall MSHR misses (Count)
system.cache_hierarchy.dptw_caches.demandMshrMissLatency::processor.cores.core.mmu.dtb.walker      2900000                       # number of demand (read+write) MSHR miss ticks (Tick)
system.cache_hierarchy.dptw_caches.demandMshrMissLatency::total      2900000                       # number of demand (read+write) MSHR miss ticks (Tick)
system.cache_hierarchy.dptw_caches.overallMshrMissLatency::processor.cores.core.mmu.dtb.walker      2900000                       # number of overall MSHR miss ticks (Tick)
system.cache_hierarchy.dptw_caches.overallMshrMissLatency::total      2900000                       # number of overall MSHR miss ticks (Tick)
system.cache_hierarchy.dptw_caches.demandMshrMissRate::processor.cores.core.mmu.dtb.walker     0.087756                       # mshr miss ratio for demand accesses (Ratio)
system.cache_hierarchy.dptw_caches.demandMshrMissRate::total     0.087756                       # mshr miss ratio for demand accesses (Ratio)
system.cache_hierarchy.dptw_caches.overallMshrMissRate::processor.cores.core.mmu.dtb.walker     0.087756                       # mshr miss ratio for overall accesses (Ratio)
system.cache_hierarchy.dptw_caches.overallMshrMissRate::total     0.087756                       # mshr miss ratio for overall accesses (Ratio)
system.cache_hierarchy.dptw_caches.demandAvgMshrMissLatency::processor.cores.core.mmu.dtb.walker 13809.523810                       # average overall mshr miss latency ((Tick/Count))
system.cache_hierarchy.dptw_caches.demandAvgMshrMissLatency::total 13809.523810                       # average overall mshr miss latency ((Tick/Count))
system.cache_hierarchy.dptw_caches.overallAvgMshrMissLatency::processor.cores.core.mmu.dtb.walker 13809.523810                       # average overall mshr miss latency ((Tick/Count))
system.cache_hierarchy.dptw_caches.overallAvgMshrMissLatency::total 13809.523810                       # average overall mshr miss latency ((Tick/Count))
system.cache_hierarchy.dptw_caches.replacements          208                       # number of replacements (Count)
system.cache_hierarchy.dptw_caches.ReadReq.hits::processor.cores.core.mmu.dtb.walker         2180                       # number of ReadReq hits (Count)
system.cache_hierarchy.dptw_caches.ReadReq.hits::total         2180                       # number of ReadReq hits (Count)
system.cache_hierarchy.dptw_caches.ReadReq.misses::processor.cores.core.mmu.dtb.walker          209                       # number of ReadReq misses (Count)
system.cache_hierarchy.dptw_caches.ReadReq.misses::total          209                       # number of ReadReq misses (Count)
system.cache_hierarchy.dptw_caches.ReadReq.missLatency::processor.cores.core.mmu.dtb.walker      3103000                       # number of ReadReq miss ticks (Tick)
system.cache_hierarchy.dptw_caches.ReadReq.missLatency::total      3103000                       # number of ReadReq miss ticks (Tick)
system.cache_hierarchy.dptw_caches.ReadReq.accesses::processor.cores.core.mmu.dtb.walker         2389                       # number of ReadReq accesses(hits+misses) (Count)
system.cache_hierarchy.dptw_caches.ReadReq.accesses::total         2389                       # number of ReadReq accesses(hits+misses) (Count)
system.cache_hierarchy.dptw_caches.ReadReq.missRate::processor.cores.core.mmu.dtb.walker     0.087484                       # miss rate for ReadReq accesses (Ratio)
system.cache_hierarchy.dptw_caches.ReadReq.missRate::total     0.087484                       # miss rate for ReadReq accesses (Ratio)
system.cache_hierarchy.dptw_caches.ReadReq.avgMissLatency::processor.cores.core.mmu.dtb.walker 14846.889952                       # average ReadReq miss latency ((Tick/Count))
system.cache_hierarchy.dptw_caches.ReadReq.avgMissLatency::total 14846.889952                       # average ReadReq miss latency ((Tick/Count))
system.cache_hierarchy.dptw_caches.ReadReq.mshrMisses::processor.cores.core.mmu.dtb.walker          209                       # number of ReadReq MSHR misses (Count)
system.cache_hierarchy.dptw_caches.ReadReq.mshrMisses::total          209                       # number of ReadReq MSHR misses (Count)
system.cache_hierarchy.dptw_caches.ReadReq.mshrMissLatency::processor.cores.core.mmu.dtb.walker      2894000                       # number of ReadReq MSHR miss ticks (Tick)
system.cache_hierarchy.dptw_caches.ReadReq.mshrMissLatency::total      2894000                       # number of ReadReq MSHR miss ticks (Tick)
system.cache_hierarchy.dptw_caches.ReadReq.mshrMissRate::processor.cores.core.mmu.dtb.walker     0.087484                       # mshr miss rate for ReadReq accesses (Ratio)
system.cache_hierarchy.dptw_caches.ReadReq.mshrMissRate::total     0.087484                       # mshr miss rate for ReadReq accesses (Ratio)
system.cache_hierarchy.dptw_caches.ReadReq.avgMshrMissLatency::processor.cores.core.mmu.dtb.walker 13846.889952                       # average ReadReq mshr miss latency ((Tick/Count))
system.cache_hierarchy.dptw_caches.ReadReq.avgMshrMissLatency::total 13846.889952                       # average ReadReq mshr miss latency ((Tick/Count))
system.cache_hierarchy.dptw_caches.WriteReq.hits::processor.cores.core.mmu.dtb.walker            3                       # number of WriteReq hits (Count)
system.cache_hierarchy.dptw_caches.WriteReq.hits::total            3                       # number of WriteReq hits (Count)
system.cache_hierarchy.dptw_caches.WriteReq.misses::processor.cores.core.mmu.dtb.walker            1                       # number of WriteReq misses (Count)
system.cache_hierarchy.dptw_caches.WriteReq.misses::total            1                       # number of WriteReq misses (Count)
system.cache_hierarchy.dptw_caches.WriteReq.missLatency::processor.cores.core.mmu.dtb.walker         7000                       # number of WriteReq miss ticks (Tick)
system.cache_hierarchy.dptw_caches.WriteReq.missLatency::total         7000                       # number of WriteReq miss ticks (Tick)
system.cache_hierarchy.dptw_caches.WriteReq.accesses::processor.cores.core.mmu.dtb.walker            4                       # number of WriteReq accesses(hits+misses) (Count)
system.cache_hierarchy.dptw_caches.WriteReq.accesses::total            4                       # number of WriteReq accesses(hits+misses) (Count)
system.cache_hierarchy.dptw_caches.WriteReq.missRate::processor.cores.core.mmu.dtb.walker     0.250000                       # miss rate for WriteReq accesses (Ratio)
system.cache_hierarchy.dptw_caches.WriteReq.missRate::total     0.250000                       # miss rate for WriteReq accesses (Ratio)
system.cache_hierarchy.dptw_caches.WriteReq.avgMissLatency::processor.cores.core.mmu.dtb.walker         7000                       # average WriteReq miss latency ((Tick/Count))
system.cache_hierarchy.dptw_caches.WriteReq.avgMissLatency::total         7000                       # average WriteReq miss latency ((Tick/Count))
system.cache_hierarchy.dptw_caches.WriteReq.mshrMisses::processor.cores.core.mmu.dtb.walker            1                       # number of WriteReq MSHR misses (Count)
system.cache_hierarchy.dptw_caches.WriteReq.mshrMisses::total            1                       # number of WriteReq MSHR misses (Count)
system.cache_hierarchy.dptw_caches.WriteReq.mshrMissLatency::processor.cores.core.mmu.dtb.walker         6000                       # number of WriteReq MSHR miss ticks (Tick)
system.cache_hierarchy.dptw_caches.WriteReq.mshrMissLatency::total         6000                       # number of WriteReq MSHR miss ticks (Tick)
system.cache_hierarchy.dptw_caches.WriteReq.mshrMissRate::processor.cores.core.mmu.dtb.walker     0.250000                       # mshr miss rate for WriteReq accesses (Ratio)
system.cache_hierarchy.dptw_caches.WriteReq.mshrMissRate::total     0.250000                       # mshr miss rate for WriteReq accesses (Ratio)
system.cache_hierarchy.dptw_caches.WriteReq.avgMshrMissLatency::processor.cores.core.mmu.dtb.walker         6000                       # average WriteReq mshr miss latency ((Tick/Count))
system.cache_hierarchy.dptw_caches.WriteReq.avgMshrMissLatency::total         6000                       # average WriteReq mshr miss latency ((Tick/Count))
system.cache_hierarchy.dptw_caches.power_state.pwrStateResidencyTicks::UNDEFINED 119334698000                       # Cumulative time (in ticks) in various power states (Tick)
system.cache_hierarchy.dptw_caches.tags.tagsInUse   112.890011                       # Average ticks per tags in use ((Tick/Count))
system.cache_hierarchy.dptw_caches.tags.totalRefs         1975                       # Total number of references to valid blocks. (Count)
system.cache_hierarchy.dptw_caches.tags.sampledRefs          208                       # Sample count of references to valid blocks. (Count)
system.cache_hierarchy.dptw_caches.tags.avgRefs     9.495192                       # Average number of references to valid blocks. ((Count/Count))
system.cache_hierarchy.dptw_caches.tags.warmupTick            0                       # The tick when the warmup percentage was hit. (Tick)
system.cache_hierarchy.dptw_caches.tags.occupancies::processor.cores.core.mmu.dtb.walker   112.890011                       # Average occupied blocks per tick, per requestor ((Count/Tick))
system.cache_hierarchy.dptw_caches.tags.avgOccs::processor.cores.core.mmu.dtb.walker     0.881953                       # Average percentage of cache occupancy ((Ratio/Tick))
system.cache_hierarchy.dptw_caches.tags.avgOccs::total     0.881953                       # Average percentage of cache occupancy ((Ratio/Tick))
system.cache_hierarchy.dptw_caches.tags.occupanciesTaskId::1024          113                       # Occupied blocks per task id (Count)
system.cache_hierarchy.dptw_caches.tags.ageTaskId_1024::0            9                       # Occupied blocks per task id, per block age (Count)
system.cache_hierarchy.dptw_caches.tags.ageTaskId_1024::3           15                       # Occupied blocks per task id, per block age (Count)
system.cache_hierarchy.dptw_caches.tags.ageTaskId_1024::4           89                       # Occupied blocks per task id, per block age (Count)
system.cache_hierarchy.dptw_caches.tags.ratioOccsTaskId::1024     0.882812                       # Ratio of occupied blocks and all blocks, per task id (Ratio)
system.cache_hierarchy.dptw_caches.tags.tagAccesses         9781                       # Number of tag accesses (Count)
system.cache_hierarchy.dptw_caches.tags.dataAccesses         9781                       # Number of data accesses (Count)
system.cache_hierarchy.dptw_caches.tags.power_state.pwrStateResidencyTicks::UNDEFINED 119334698000                       # Cumulative time (in ticks) in various power states (Tick)
system.cache_hierarchy.iocache.demandMisses::lupio_blk          605                       # number of demand (read+write) misses (Count)
system.cache_hierarchy.iocache.demandMisses::total          605                       # number of demand (read+write) misses (Count)
system.cache_hierarchy.iocache.overallMisses::lupio_blk          605                       # number of overall misses (Count)
system.cache_hierarchy.iocache.overallMisses::total          605                       # number of overall misses (Count)
system.cache_hierarchy.iocache.demandMissLatency::lupio_blk     87656000                       # number of demand (read+write) miss ticks (Tick)
system.cache_hierarchy.iocache.demandMissLatency::total     87656000                       # number of demand (read+write) miss ticks (Tick)
system.cache_hierarchy.iocache.overallMissLatency::lupio_blk     87656000                       # number of overall miss ticks (Tick)
system.cache_hierarchy.iocache.overallMissLatency::total     87656000                       # number of overall miss ticks (Tick)
system.cache_hierarchy.iocache.demandAccesses::lupio_blk          605                       # number of demand (read+write) accesses (Count)
system.cache_hierarchy.iocache.demandAccesses::total          605                       # number of demand (read+write) accesses (Count)
system.cache_hierarchy.iocache.overallAccesses::lupio_blk          605                       # number of overall (read+write) accesses (Count)
system.cache_hierarchy.iocache.overallAccesses::total          605                       # number of overall (read+write) accesses (Count)
system.cache_hierarchy.iocache.demandMissRate::lupio_blk            1                       # miss rate for demand accesses (Ratio)
system.cache_hierarchy.iocache.demandMissRate::total            1                       # miss rate for demand accesses (Ratio)
system.cache_hierarchy.iocache.overallMissRate::lupio_blk            1                       # miss rate for overall accesses (Ratio)
system.cache_hierarchy.iocache.overallMissRate::total            1                       # miss rate for overall accesses (Ratio)
system.cache_hierarchy.iocache.demandAvgMissLatency::lupio_blk 144885.950413                       # average overall miss latency in ticks ((Tick/Count))
system.cache_hierarchy.iocache.demandAvgMissLatency::total 144885.950413                       # average overall miss latency in ticks ((Tick/Count))
system.cache_hierarchy.iocache.overallAvgMissLatency::lupio_blk 144885.950413                       # average overall miss latency ((Tick/Count))
system.cache_hierarchy.iocache.overallAvgMissLatency::total 144885.950413                       # average overall miss latency ((Tick/Count))
system.cache_hierarchy.iocache.blockedCycles::no_mshrs            0                       # number of cycles access was blocked (Cycle)
system.cache_hierarchy.iocache.blockedCycles::no_targets            0                       # number of cycles access was blocked (Cycle)
system.cache_hierarchy.iocache.blockedCauses::no_mshrs            0                       # number of times access was blocked (Count)
system.cache_hierarchy.iocache.blockedCauses::no_targets            0                       # number of times access was blocked (Count)
system.cache_hierarchy.iocache.avgBlocked::no_mshrs          nan                       # average number of cycles each access was blocked ((Cycle/Count))
system.cache_hierarchy.iocache.avgBlocked::no_targets          nan                       # average number of cycles each access was blocked ((Cycle/Count))
system.cache_hierarchy.iocache.writebacks::writebacks           66                       # number of writebacks (Count)
system.cache_hierarchy.iocache.writebacks::total           66                       # number of writebacks (Count)
system.cache_hierarchy.iocache.demandMshrMisses::lupio_blk          605                       # number of demand (read+write) MSHR misses (Count)
system.cache_hierarchy.iocache.demandMshrMisses::total          605                       # number of demand (read+write) MSHR misses (Count)
system.cache_hierarchy.iocache.overallMshrMisses::lupio_blk          605                       # number of overall MSHR misses (Count)
system.cache_hierarchy.iocache.overallMshrMisses::total          605                       # number of overall MSHR misses (Count)
system.cache_hierarchy.iocache.demandMshrMissLatency::lupio_blk     57399007                       # number of demand (read+write) MSHR miss ticks (Tick)
system.cache_hierarchy.iocache.demandMshrMissLatency::total     57399007                       # number of demand (read+write) MSHR miss ticks (Tick)
system.cache_hierarchy.iocache.overallMshrMissLatency::lupio_blk     57399007                       # number of overall MSHR miss ticks (Tick)
system.cache_hierarchy.iocache.overallMshrMissLatency::total     57399007                       # number of overall MSHR miss ticks (Tick)
system.cache_hierarchy.iocache.demandMshrMissRate::lupio_blk            1                       # mshr miss ratio for demand accesses (Ratio)
system.cache_hierarchy.iocache.demandMshrMissRate::total            1                       # mshr miss ratio for demand accesses (Ratio)
system.cache_hierarchy.iocache.overallMshrMissRate::lupio_blk            1                       # mshr miss ratio for overall accesses (Ratio)
system.cache_hierarchy.iocache.overallMshrMissRate::total            1                       # mshr miss ratio for overall accesses (Ratio)
system.cache_hierarchy.iocache.demandAvgMshrMissLatency::lupio_blk 94874.391736                       # average overall mshr miss latency ((Tick/Count))
system.cache_hierarchy.iocache.demandAvgMshrMissLatency::total 94874.391736                       # average overall mshr miss latency ((Tick/Count))
system.cache_hierarchy.iocache.overallAvgMshrMissLatency::lupio_blk 94874.391736                       # average overall mshr miss latency ((Tick/Count))
system.cache_hierarchy.iocache.overallAvgMshrMissLatency::total 94874.391736                       # average overall mshr miss latency ((Tick/Count))
system.cache_hierarchy.iocache.replacements          595                       # number of replacements (Count)
system.cache_hierarchy.iocache.ReadReq.misses::lupio_blk          537                       # number of ReadReq misses (Count)
system.cache_hierarchy.iocache.ReadReq.misses::total          537                       # number of ReadReq misses (Count)
system.cache_hierarchy.iocache.ReadReq.missLatency::lupio_blk     79635000                       # number of ReadReq miss ticks (Tick)
system.cache_hierarchy.iocache.ReadReq.missLatency::total     79635000                       # number of ReadReq miss ticks (Tick)
system.cache_hierarchy.iocache.ReadReq.accesses::lupio_blk          537                       # number of ReadReq accesses(hits+misses) (Count)
system.cache_hierarchy.iocache.ReadReq.accesses::total          537                       # number of ReadReq accesses(hits+misses) (Count)
system.cache_hierarchy.iocache.ReadReq.missRate::lupio_blk            1                       # miss rate for ReadReq accesses (Ratio)
system.cache_hierarchy.iocache.ReadReq.missRate::total            1                       # miss rate for ReadReq accesses (Ratio)
system.cache_hierarchy.iocache.ReadReq.avgMissLatency::lupio_blk 148296.089385                       # average ReadReq miss latency ((Tick/Count))
system.cache_hierarchy.iocache.ReadReq.avgMissLatency::total 148296.089385                       # average ReadReq miss latency ((Tick/Count))
system.cache_hierarchy.iocache.ReadReq.mshrMisses::lupio_blk          537                       # number of ReadReq MSHR misses (Count)
system.cache_hierarchy.iocache.ReadReq.mshrMisses::total          537                       # number of ReadReq MSHR misses (Count)
system.cache_hierarchy.iocache.ReadReq.mshrMissLatency::lupio_blk     52785000                       # number of ReadReq MSHR miss ticks (Tick)
system.cache_hierarchy.iocache.ReadReq.mshrMissLatency::total     52785000                       # number of ReadReq MSHR miss ticks (Tick)
system.cache_hierarchy.iocache.ReadReq.mshrMissRate::lupio_blk            1                       # mshr miss rate for ReadReq accesses (Ratio)
system.cache_hierarchy.iocache.ReadReq.mshrMissRate::total            1                       # mshr miss rate for ReadReq accesses (Ratio)
system.cache_hierarchy.iocache.ReadReq.avgMshrMissLatency::lupio_blk 98296.089385                       # average ReadReq mshr miss latency ((Tick/Count))
system.cache_hierarchy.iocache.ReadReq.avgMshrMissLatency::total 98296.089385                       # average ReadReq mshr miss latency ((Tick/Count))
system.cache_hierarchy.iocache.WriteLineReq.misses::lupio_blk           60                       # number of WriteLineReq misses (Count)
system.cache_hierarchy.iocache.WriteLineReq.misses::total           60                       # number of WriteLineReq misses (Count)
system.cache_hierarchy.iocache.WriteLineReq.missLatency::lupio_blk      7078000                       # number of WriteLineReq miss ticks (Tick)
system.cache_hierarchy.iocache.WriteLineReq.missLatency::total      7078000                       # number of WriteLineReq miss ticks (Tick)
system.cache_hierarchy.iocache.WriteLineReq.accesses::lupio_blk           60                       # number of WriteLineReq accesses(hits+misses) (Count)
system.cache_hierarchy.iocache.WriteLineReq.accesses::total           60                       # number of WriteLineReq accesses(hits+misses) (Count)
system.cache_hierarchy.iocache.WriteLineReq.missRate::lupio_blk            1                       # miss rate for WriteLineReq accesses (Ratio)
system.cache_hierarchy.iocache.WriteLineReq.missRate::total            1                       # miss rate for WriteLineReq accesses (Ratio)
system.cache_hierarchy.iocache.WriteLineReq.avgMissLatency::lupio_blk 117966.666667                       # average WriteLineReq miss latency ((Tick/Count))
system.cache_hierarchy.iocache.WriteLineReq.avgMissLatency::total 117966.666667                       # average WriteLineReq miss latency ((Tick/Count))
system.cache_hierarchy.iocache.WriteLineReq.mshrMisses::lupio_blk           60                       # number of WriteLineReq MSHR misses (Count)
system.cache_hierarchy.iocache.WriteLineReq.mshrMisses::total           60                       # number of WriteLineReq MSHR misses (Count)
system.cache_hierarchy.iocache.WriteLineReq.mshrMissLatency::lupio_blk      4072006                       # number of WriteLineReq MSHR miss ticks (Tick)
system.cache_hierarchy.iocache.WriteLineReq.mshrMissLatency::total      4072006                       # number of WriteLineReq MSHR miss ticks (Tick)
system.cache_hierarchy.iocache.WriteLineReq.mshrMissRate::lupio_blk            1                       # mshr miss rate for WriteLineReq accesses (Ratio)
system.cache_hierarchy.iocache.WriteLineReq.mshrMissRate::total            1                       # mshr miss rate for WriteLineReq accesses (Ratio)
system.cache_hierarchy.iocache.WriteLineReq.avgMshrMissLatency::lupio_blk 67866.766667                       # average WriteLineReq mshr miss latency ((Tick/Count))
system.cache_hierarchy.iocache.WriteLineReq.avgMshrMissLatency::total 67866.766667                       # average WriteLineReq mshr miss latency ((Tick/Count))
system.cache_hierarchy.iocache.WriteReq.misses::lupio_blk            8                       # number of WriteReq misses (Count)
system.cache_hierarchy.iocache.WriteReq.misses::total            8                       # number of WriteReq misses (Count)
system.cache_hierarchy.iocache.WriteReq.missLatency::lupio_blk       943000                       # number of WriteReq miss ticks (Tick)
system.cache_hierarchy.iocache.WriteReq.missLatency::total       943000                       # number of WriteReq miss ticks (Tick)
system.cache_hierarchy.iocache.WriteReq.accesses::lupio_blk            8                       # number of WriteReq accesses(hits+misses) (Count)
system.cache_hierarchy.iocache.WriteReq.accesses::total            8                       # number of WriteReq accesses(hits+misses) (Count)
system.cache_hierarchy.iocache.WriteReq.missRate::lupio_blk            1                       # miss rate for WriteReq accesses (Ratio)
system.cache_hierarchy.iocache.WriteReq.missRate::total            1                       # miss rate for WriteReq accesses (Ratio)
system.cache_hierarchy.iocache.WriteReq.avgMissLatency::lupio_blk       117875                       # average WriteReq miss latency ((Tick/Count))
system.cache_hierarchy.iocache.WriteReq.avgMissLatency::total       117875                       # average WriteReq miss latency ((Tick/Count))
system.cache_hierarchy.iocache.WriteReq.mshrMisses::lupio_blk            8                       # number of WriteReq MSHR misses (Count)
system.cache_hierarchy.iocache.WriteReq.mshrMisses::total            8                       # number of WriteReq MSHR misses (Count)
system.cache_hierarchy.iocache.WriteReq.mshrMissLatency::lupio_blk       542001                       # number of WriteReq MSHR miss ticks (Tick)
system.cache_hierarchy.iocache.WriteReq.mshrMissLatency::total       542001                       # number of WriteReq MSHR miss ticks (Tick)
system.cache_hierarchy.iocache.WriteReq.mshrMissRate::lupio_blk            1                       # mshr miss rate for WriteReq accesses (Ratio)
system.cache_hierarchy.iocache.WriteReq.mshrMissRate::total            1                       # mshr miss rate for WriteReq accesses (Ratio)
system.cache_hierarchy.iocache.WriteReq.avgMshrMissLatency::lupio_blk 67750.125000                       # average WriteReq mshr miss latency ((Tick/Count))
system.cache_hierarchy.iocache.WriteReq.avgMshrMissLatency::total 67750.125000                       # average WriteReq mshr miss latency ((Tick/Count))
system.cache_hierarchy.iocache.power_state.pwrStateResidencyTicks::UNDEFINED 119334698000                       # Cumulative time (in ticks) in various power states (Tick)
system.cache_hierarchy.iocache.tags.tagsInUse    15.994309                       # Average ticks per tags in use ((Tick/Count))
system.cache_hierarchy.iocache.tags.totalRefs          605                       # Total number of references to valid blocks. (Count)
system.cache_hierarchy.iocache.tags.sampledRefs          605                       # Sample count of references to valid blocks. (Count)
system.cache_hierarchy.iocache.tags.avgRefs            1                       # Average number of references to valid blocks. ((Count/Count))
system.cache_hierarchy.iocache.tags.warmupTick            0                       # The tick when the warmup percentage was hit. (Tick)
system.cache_hierarchy.iocache.tags.occupancies::lupio_blk    15.994309                       # Average occupied blocks per tick, per requestor ((Count/Tick))
system.cache_hierarchy.iocache.tags.avgOccs::lupio_blk     0.999644                       # Average percentage of cache occupancy ((Ratio/Tick))
system.cache_hierarchy.iocache.tags.avgOccs::total     0.999644                       # Average percentage of cache occupancy ((Ratio/Tick))
system.cache_hierarchy.iocache.tags.occupanciesTaskId::1023           16                       # Occupied blocks per task id (Count)
system.cache_hierarchy.iocache.tags.ageTaskId_1023::1           16                       # Occupied blocks per task id, per block age (Count)
system.cache_hierarchy.iocache.tags.ratioOccsTaskId::1023            1                       # Ratio of occupied blocks and all blocks, per task id (Ratio)
system.cache_hierarchy.iocache.tags.tagAccesses         5445                       # Number of tag accesses (Count)
system.cache_hierarchy.iocache.tags.dataAccesses         5445                       # Number of data accesses (Count)
system.cache_hierarchy.iocache.tags.power_state.pwrStateResidencyTicks::UNDEFINED 119334698000                       # Cumulative time (in ticks) in various power states (Tick)
system.cache_hierarchy.iptw_caches.demandHits::processor.cores.core.mmu.itb.walker         1258                       # number of demand (read+write) hits (Count)
system.cache_hierarchy.iptw_caches.demandHits::total         1258                       # number of demand (read+write) hits (Count)
system.cache_hierarchy.iptw_caches.overallHits::processor.cores.core.mmu.itb.walker         1258                       # number of overall hits (Count)
system.cache_hierarchy.iptw_caches.overallHits::total         1258                       # number of overall hits (Count)
system.cache_hierarchy.iptw_caches.demandMisses::processor.cores.core.mmu.itb.walker          154                       # number of demand (read+write) misses (Count)
system.cache_hierarchy.iptw_caches.demandMisses::total          154                       # number of demand (read+write) misses (Count)
system.cache_hierarchy.iptw_caches.overallMisses::processor.cores.core.mmu.itb.walker          154                       # number of overall misses (Count)
system.cache_hierarchy.iptw_caches.overallMisses::total          154                       # number of overall misses (Count)
system.cache_hierarchy.iptw_caches.demandMissLatency::processor.cores.core.mmu.itb.walker      2304000                       # number of demand (read+write) miss ticks (Tick)
system.cache_hierarchy.iptw_caches.demandMissLatency::total      2304000                       # number of demand (read+write) miss ticks (Tick)
system.cache_hierarchy.iptw_caches.overallMissLatency::processor.cores.core.mmu.itb.walker      2304000                       # number of overall miss ticks (Tick)
system.cache_hierarchy.iptw_caches.overallMissLatency::total      2304000                       # number of overall miss ticks (Tick)
system.cache_hierarchy.iptw_caches.demandAccesses::processor.cores.core.mmu.itb.walker         1412                       # number of demand (read+write) accesses (Count)
system.cache_hierarchy.iptw_caches.demandAccesses::total         1412                       # number of demand (read+write) accesses (Count)
system.cache_hierarchy.iptw_caches.overallAccesses::processor.cores.core.mmu.itb.walker         1412                       # number of overall (read+write) accesses (Count)
system.cache_hierarchy.iptw_caches.overallAccesses::total         1412                       # number of overall (read+write) accesses (Count)
system.cache_hierarchy.iptw_caches.demandMissRate::processor.cores.core.mmu.itb.walker     0.109065                       # miss rate for demand accesses (Ratio)
system.cache_hierarchy.iptw_caches.demandMissRate::total     0.109065                       # miss rate for demand accesses (Ratio)
system.cache_hierarchy.iptw_caches.overallMissRate::processor.cores.core.mmu.itb.walker     0.109065                       # miss rate for overall accesses (Ratio)
system.cache_hierarchy.iptw_caches.overallMissRate::total     0.109065                       # miss rate for overall accesses (Ratio)
system.cache_hierarchy.iptw_caches.demandAvgMissLatency::processor.cores.core.mmu.itb.walker 14961.038961                       # average overall miss latency in ticks ((Tick/Count))
system.cache_hierarchy.iptw_caches.demandAvgMissLatency::total 14961.038961                       # average overall miss latency in ticks ((Tick/Count))
system.cache_hierarchy.iptw_caches.overallAvgMissLatency::processor.cores.core.mmu.itb.walker 14961.038961                       # average overall miss latency ((Tick/Count))
system.cache_hierarchy.iptw_caches.overallAvgMissLatency::total 14961.038961                       # average overall miss latency ((Tick/Count))
system.cache_hierarchy.iptw_caches.blockedCycles::no_mshrs            0                       # number of cycles access was blocked (Cycle)
system.cache_hierarchy.iptw_caches.blockedCycles::no_targets            0                       # number of cycles access was blocked (Cycle)
system.cache_hierarchy.iptw_caches.blockedCauses::no_mshrs            0                       # number of times access was blocked (Count)
system.cache_hierarchy.iptw_caches.blockedCauses::no_targets            0                       # number of times access was blocked (Count)
system.cache_hierarchy.iptw_caches.avgBlocked::no_mshrs          nan                       # average number of cycles each access was blocked ((Cycle/Count))
system.cache_hierarchy.iptw_caches.avgBlocked::no_targets          nan                       # average number of cycles each access was blocked ((Cycle/Count))
system.cache_hierarchy.iptw_caches.writebacks::writebacks          153                       # number of writebacks (Count)
system.cache_hierarchy.iptw_caches.writebacks::total          153                       # number of writebacks (Count)
system.cache_hierarchy.iptw_caches.demandMshrMisses::processor.cores.core.mmu.itb.walker          154                       # number of demand (read+write) MSHR misses (Count)
system.cache_hierarchy.iptw_caches.demandMshrMisses::total          154                       # number of demand (read+write) MSHR misses (Count)
system.cache_hierarchy.iptw_caches.overallMshrMisses::processor.cores.core.mmu.itb.walker          154                       # number of overall MSHR misses (Count)
system.cache_hierarchy.iptw_caches.overallMshrMisses::total          154                       # number of overall MSHR misses (Count)
system.cache_hierarchy.iptw_caches.demandMshrMissLatency::processor.cores.core.mmu.itb.walker      2150000                       # number of demand (read+write) MSHR miss ticks (Tick)
system.cache_hierarchy.iptw_caches.demandMshrMissLatency::total      2150000                       # number of demand (read+write) MSHR miss ticks (Tick)
system.cache_hierarchy.iptw_caches.overallMshrMissLatency::processor.cores.core.mmu.itb.walker      2150000                       # number of overall MSHR miss ticks (Tick)
system.cache_hierarchy.iptw_caches.overallMshrMissLatency::total      2150000                       # number of overall MSHR miss ticks (Tick)
system.cache_hierarchy.iptw_caches.demandMshrMissRate::processor.cores.core.mmu.itb.walker     0.109065                       # mshr miss ratio for demand accesses (Ratio)
system.cache_hierarchy.iptw_caches.demandMshrMissRate::total     0.109065                       # mshr miss ratio for demand accesses (Ratio)
system.cache_hierarchy.iptw_caches.overallMshrMissRate::processor.cores.core.mmu.itb.walker     0.109065                       # mshr miss ratio for overall accesses (Ratio)
system.cache_hierarchy.iptw_caches.overallMshrMissRate::total     0.109065                       # mshr miss ratio for overall accesses (Ratio)
system.cache_hierarchy.iptw_caches.demandAvgMshrMissLatency::processor.cores.core.mmu.itb.walker 13961.038961                       # average overall mshr miss latency ((Tick/Count))
system.cache_hierarchy.iptw_caches.demandAvgMshrMissLatency::total 13961.038961                       # average overall mshr miss latency ((Tick/Count))
system.cache_hierarchy.iptw_caches.overallAvgMshrMissLatency::processor.cores.core.mmu.itb.walker 13961.038961                       # average overall mshr miss latency ((Tick/Count))
system.cache_hierarchy.iptw_caches.overallAvgMshrMissLatency::total 13961.038961                       # average overall mshr miss latency ((Tick/Count))
system.cache_hierarchy.iptw_caches.replacements          153                       # number of replacements (Count)
system.cache_hierarchy.iptw_caches.ReadReq.hits::processor.cores.core.mmu.itb.walker         1252                       # number of ReadReq hits (Count)
system.cache_hierarchy.iptw_caches.ReadReq.hits::total         1252                       # number of ReadReq hits (Count)
system.cache_hierarchy.iptw_caches.ReadReq.misses::processor.cores.core.mmu.itb.walker          154                       # number of ReadReq misses (Count)
system.cache_hierarchy.iptw_caches.ReadReq.misses::total          154                       # number of ReadReq misses (Count)
system.cache_hierarchy.iptw_caches.ReadReq.missLatency::processor.cores.core.mmu.itb.walker      2304000                       # number of ReadReq miss ticks (Tick)
system.cache_hierarchy.iptw_caches.ReadReq.missLatency::total      2304000                       # number of ReadReq miss ticks (Tick)
system.cache_hierarchy.iptw_caches.ReadReq.accesses::processor.cores.core.mmu.itb.walker         1406                       # number of ReadReq accesses(hits+misses) (Count)
system.cache_hierarchy.iptw_caches.ReadReq.accesses::total         1406                       # number of ReadReq accesses(hits+misses) (Count)
system.cache_hierarchy.iptw_caches.ReadReq.missRate::processor.cores.core.mmu.itb.walker     0.109531                       # miss rate for ReadReq accesses (Ratio)
system.cache_hierarchy.iptw_caches.ReadReq.missRate::total     0.109531                       # miss rate for ReadReq accesses (Ratio)
system.cache_hierarchy.iptw_caches.ReadReq.avgMissLatency::processor.cores.core.mmu.itb.walker 14961.038961                       # average ReadReq miss latency ((Tick/Count))
system.cache_hierarchy.iptw_caches.ReadReq.avgMissLatency::total 14961.038961                       # average ReadReq miss latency ((Tick/Count))
system.cache_hierarchy.iptw_caches.ReadReq.mshrMisses::processor.cores.core.mmu.itb.walker          154                       # number of ReadReq MSHR misses (Count)
system.cache_hierarchy.iptw_caches.ReadReq.mshrMisses::total          154                       # number of ReadReq MSHR misses (Count)
system.cache_hierarchy.iptw_caches.ReadReq.mshrMissLatency::processor.cores.core.mmu.itb.walker      2150000                       # number of ReadReq MSHR miss ticks (Tick)
system.cache_hierarchy.iptw_caches.ReadReq.mshrMissLatency::total      2150000                       # number of ReadReq MSHR miss ticks (Tick)
system.cache_hierarchy.iptw_caches.ReadReq.mshrMissRate::processor.cores.core.mmu.itb.walker     0.109531                       # mshr miss rate for ReadReq accesses (Ratio)
system.cache_hierarchy.iptw_caches.ReadReq.mshrMissRate::total     0.109531                       # mshr miss rate for ReadReq accesses (Ratio)
system.cache_hierarchy.iptw_caches.ReadReq.avgMshrMissLatency::processor.cores.core.mmu.itb.walker 13961.038961                       # average ReadReq mshr miss latency ((Tick/Count))
system.cache_hierarchy.iptw_caches.ReadReq.avgMshrMissLatency::total 13961.038961                       # average ReadReq mshr miss latency ((Tick/Count))
system.cache_hierarchy.iptw_caches.WriteReq.hits::processor.cores.core.mmu.itb.walker            6                       # number of WriteReq hits (Count)
system.cache_hierarchy.iptw_caches.WriteReq.hits::total            6                       # number of WriteReq hits (Count)
system.cache_hierarchy.iptw_caches.WriteReq.accesses::processor.cores.core.mmu.itb.walker            6                       # number of WriteReq accesses(hits+misses) (Count)
system.cache_hierarchy.iptw_caches.WriteReq.accesses::total            6                       # number of WriteReq accesses(hits+misses) (Count)
system.cache_hierarchy.iptw_caches.power_state.pwrStateResidencyTicks::UNDEFINED 119334698000                       # Cumulative time (in ticks) in various power states (Tick)
system.cache_hierarchy.iptw_caches.tags.tagsInUse    41.911239                       # Average ticks per tags in use ((Tick/Count))
system.cache_hierarchy.iptw_caches.tags.totalRefs         1437                       # Total number of references to valid blocks. (Count)
system.cache_hierarchy.iptw_caches.tags.sampledRefs          154                       # Sample count of references to valid blocks. (Count)
system.cache_hierarchy.iptw_caches.tags.avgRefs     9.331169                       # Average number of references to valid blocks. ((Count/Count))
system.cache_hierarchy.iptw_caches.tags.warmupTick            0                       # The tick when the warmup percentage was hit. (Tick)
system.cache_hierarchy.iptw_caches.tags.occupancies::processor.cores.core.mmu.itb.walker    41.911239                       # Average occupied blocks per tick, per requestor ((Count/Tick))
system.cache_hierarchy.iptw_caches.tags.avgOccs::processor.cores.core.mmu.itb.walker     0.327432                       # Average percentage of cache occupancy ((Ratio/Tick))
system.cache_hierarchy.iptw_caches.tags.avgOccs::total     0.327432                       # Average percentage of cache occupancy ((Ratio/Tick))
system.cache_hierarchy.iptw_caches.tags.occupanciesTaskId::1024           42                       # Occupied blocks per task id (Count)
system.cache_hierarchy.iptw_caches.tags.ageTaskId_1024::0            5                       # Occupied blocks per task id, per block age (Count)
system.cache_hierarchy.iptw_caches.tags.ageTaskId_1024::3           10                       # Occupied blocks per task id, per block age (Count)
system.cache_hierarchy.iptw_caches.tags.ageTaskId_1024::4           27                       # Occupied blocks per task id, per block age (Count)
system.cache_hierarchy.iptw_caches.tags.ratioOccsTaskId::1024     0.328125                       # Ratio of occupied blocks and all blocks, per task id (Ratio)
system.cache_hierarchy.iptw_caches.tags.tagAccesses         5802                       # Number of tag accesses (Count)
system.cache_hierarchy.iptw_caches.tags.dataAccesses         5802                       # Number of data accesses (Count)
system.cache_hierarchy.iptw_caches.tags.power_state.pwrStateResidencyTicks::UNDEFINED 119334698000                       # Cumulative time (in ticks) in various power states (Tick)
system.cache_hierarchy.l1dcaches.demandHits::processor.cores.core.data      1632571                       # number of demand (read+write) hits (Count)
system.cache_hierarchy.l1dcaches.demandHits::total      1632571                       # number of demand (read+write) hits (Count)
system.cache_hierarchy.l1dcaches.overallHits::processor.cores.core.data      1632571                       # number of overall hits (Count)
system.cache_hierarchy.l1dcaches.overallHits::total      1632571                       # number of overall hits (Count)
system.cache_hierarchy.l1dcaches.demandMisses::processor.cores.core.data         9483                       # number of demand (read+write) misses (Count)
system.cache_hierarchy.l1dcaches.demandMisses::total         9483                       # number of demand (read+write) misses (Count)
system.cache_hierarchy.l1dcaches.overallMisses::processor.cores.core.data         9483                       # number of overall misses (Count)
system.cache_hierarchy.l1dcaches.overallMisses::total         9483                       # number of overall misses (Count)
system.cache_hierarchy.l1dcaches.demandMissLatency::processor.cores.core.data    149555000                       # number of demand (read+write) miss ticks (Tick)
system.cache_hierarchy.l1dcaches.demandMissLatency::total    149555000                       # number of demand (read+write) miss ticks (Tick)
system.cache_hierarchy.l1dcaches.overallMissLatency::processor.cores.core.data    149555000                       # number of overall miss ticks (Tick)
system.cache_hierarchy.l1dcaches.overallMissLatency::total    149555000                       # number of overall miss ticks (Tick)
system.cache_hierarchy.l1dcaches.demandAccesses::processor.cores.core.data      1642054                       # number of demand (read+write) accesses (Count)
system.cache_hierarchy.l1dcaches.demandAccesses::total      1642054                       # number of demand (read+write) accesses (Count)
system.cache_hierarchy.l1dcaches.overallAccesses::processor.cores.core.data      1642054                       # number of overall (read+write) accesses (Count)
system.cache_hierarchy.l1dcaches.overallAccesses::total      1642054                       # number of overall (read+write) accesses (Count)
system.cache_hierarchy.l1dcaches.demandMissRate::processor.cores.core.data     0.005775                       # miss rate for demand accesses (Ratio)
system.cache_hierarchy.l1dcaches.demandMissRate::total     0.005775                       # miss rate for demand accesses (Ratio)
system.cache_hierarchy.l1dcaches.overallMissRate::processor.cores.core.data     0.005775                       # miss rate for overall accesses (Ratio)
system.cache_hierarchy.l1dcaches.overallMissRate::total     0.005775                       # miss rate for overall accesses (Ratio)
system.cache_hierarchy.l1dcaches.demandAvgMissLatency::processor.cores.core.data 15770.853106                       # average overall miss latency in ticks ((Tick/Count))
system.cache_hierarchy.l1dcaches.demandAvgMissLatency::total 15770.853106                       # average overall miss latency in ticks ((Tick/Count))
system.cache_hierarchy.l1dcaches.overallAvgMissLatency::processor.cores.core.data 15770.853106                       # average overall miss latency ((Tick/Count))
system.cache_hierarchy.l1dcaches.overallAvgMissLatency::total 15770.853106                       # average overall miss latency ((Tick/Count))
system.cache_hierarchy.l1dcaches.blockedCycles::no_mshrs            0                       # number of cycles access was blocked (Cycle)
system.cache_hierarchy.l1dcaches.blockedCycles::no_targets         1784                       # number of cycles access was blocked (Cycle)
system.cache_hierarchy.l1dcaches.blockedCauses::no_mshrs            0                       # number of times access was blocked (Count)
system.cache_hierarchy.l1dcaches.blockedCauses::no_targets          372                       # number of times access was blocked (Count)
system.cache_hierarchy.l1dcaches.avgBlocked::no_mshrs          nan                       # average number of cycles each access was blocked ((Cycle/Count))
system.cache_hierarchy.l1dcaches.avgBlocked::no_targets     4.795699                       # average number of cycles each access was blocked ((Cycle/Count))
system.cache_hierarchy.l1dcaches.writebacks::writebacks         1179                       # number of writebacks (Count)
system.cache_hierarchy.l1dcaches.writebacks::total         1179                       # number of writebacks (Count)
system.cache_hierarchy.l1dcaches.demandMshrHits::processor.cores.core.data         8370                       # number of demand (read+write) MSHR hits (Count)
system.cache_hierarchy.l1dcaches.demandMshrHits::total         8370                       # number of demand (read+write) MSHR hits (Count)
system.cache_hierarchy.l1dcaches.overallMshrHits::processor.cores.core.data         8370                       # number of overall MSHR hits (Count)
system.cache_hierarchy.l1dcaches.overallMshrHits::total         8370                       # number of overall MSHR hits (Count)
system.cache_hierarchy.l1dcaches.demandMshrMisses::processor.cores.core.data         1113                       # number of demand (read+write) MSHR misses (Count)
system.cache_hierarchy.l1dcaches.demandMshrMisses::total         1113                       # number of demand (read+write) MSHR misses (Count)
system.cache_hierarchy.l1dcaches.overallMshrMisses::cache_hierarchy.l1dcaches.prefetcher          465                       # number of overall MSHR misses (Count)
system.cache_hierarchy.l1dcaches.overallMshrMisses::processor.cores.core.data         1113                       # number of overall MSHR misses (Count)
system.cache_hierarchy.l1dcaches.overallMshrMisses::total         1578                       # number of overall MSHR misses (Count)
system.cache_hierarchy.l1dcaches.overallMshrUncacheable::processor.cores.core.data          216                       # number of overall MSHR uncacheable misses (Count)
system.cache_hierarchy.l1dcaches.overallMshrUncacheable::total          216                       # number of overall MSHR uncacheable misses (Count)
system.cache_hierarchy.l1dcaches.demandMshrMissLatency::processor.cores.core.data     22128000                       # number of demand (read+write) MSHR miss ticks (Tick)
system.cache_hierarchy.l1dcaches.demandMshrMissLatency::total     22128000                       # number of demand (read+write) MSHR miss ticks (Tick)
system.cache_hierarchy.l1dcaches.overallMshrMissLatency::cache_hierarchy.l1dcaches.prefetcher     13401084                       # number of overall MSHR miss ticks (Tick)
system.cache_hierarchy.l1dcaches.overallMshrMissLatency::processor.cores.core.data     22128000                       # number of overall MSHR miss ticks (Tick)
system.cache_hierarchy.l1dcaches.overallMshrMissLatency::total     35529084                       # number of overall MSHR miss ticks (Tick)
system.cache_hierarchy.l1dcaches.overallMshrUncacheableLatency::processor.cores.core.data      6336000                       # number of overall MSHR uncacheable ticks (Tick)
system.cache_hierarchy.l1dcaches.overallMshrUncacheableLatency::total      6336000                       # number of overall MSHR uncacheable ticks (Tick)
system.cache_hierarchy.l1dcaches.demandMshrMissRate::processor.cores.core.data     0.000678                       # mshr miss ratio for demand accesses (Ratio)
system.cache_hierarchy.l1dcaches.demandMshrMissRate::total     0.000678                       # mshr miss ratio for demand accesses (Ratio)
system.cache_hierarchy.l1dcaches.overallMshrMissRate::cache_hierarchy.l1dcaches.prefetcher          inf                       # mshr miss ratio for overall accesses (Ratio)
system.cache_hierarchy.l1dcaches.overallMshrMissRate::processor.cores.core.data     0.000678                       # mshr miss ratio for overall accesses (Ratio)
system.cache_hierarchy.l1dcaches.overallMshrMissRate::total     0.000961                       # mshr miss ratio for overall accesses (Ratio)
system.cache_hierarchy.l1dcaches.demandAvgMshrMissLatency::processor.cores.core.data 19881.401617                       # average overall mshr miss latency ((Tick/Count))
system.cache_hierarchy.l1dcaches.demandAvgMshrMissLatency::total 19881.401617                       # average overall mshr miss latency ((Tick/Count))
system.cache_hierarchy.l1dcaches.overallAvgMshrMissLatency::cache_hierarchy.l1dcaches.prefetcher 28819.535484                       # average overall mshr miss latency ((Tick/Count))
system.cache_hierarchy.l1dcaches.overallAvgMshrMissLatency::processor.cores.core.data 19881.401617                       # average overall mshr miss latency ((Tick/Count))
system.cache_hierarchy.l1dcaches.overallAvgMshrMissLatency::total 22515.262357                       # average overall mshr miss latency ((Tick/Count))
system.cache_hierarchy.l1dcaches.overallAvgMshrUncacheableLatency::processor.cores.core.data 29333.333333                       # average overall mshr uncacheable latency ((Tick/Count))
system.cache_hierarchy.l1dcaches.overallAvgMshrUncacheableLatency::total 29333.333333                       # average overall mshr uncacheable latency ((Tick/Count))
system.cache_hierarchy.l1dcaches.replacements         1179                       # number of replacements (Count)
system.cache_hierarchy.l1dcaches.HardPFReq.mshrMisses::cache_hierarchy.l1dcaches.prefetcher          465                       # number of HardPFReq MSHR misses (Count)
system.cache_hierarchy.l1dcaches.HardPFReq.mshrMisses::total          465                       # number of HardPFReq MSHR misses (Count)
system.cache_hierarchy.l1dcaches.HardPFReq.mshrMissLatency::cache_hierarchy.l1dcaches.prefetcher     13401084                       # number of HardPFReq MSHR miss ticks (Tick)
system.cache_hierarchy.l1dcaches.HardPFReq.mshrMissLatency::total     13401084                       # number of HardPFReq MSHR miss ticks (Tick)
system.cache_hierarchy.l1dcaches.HardPFReq.mshrMissRate::cache_hierarchy.l1dcaches.prefetcher          inf                       # mshr miss rate for HardPFReq accesses (Ratio)
system.cache_hierarchy.l1dcaches.HardPFReq.mshrMissRate::total          inf                       # mshr miss rate for HardPFReq accesses (Ratio)
system.cache_hierarchy.l1dcaches.HardPFReq.avgMshrMissLatency::cache_hierarchy.l1dcaches.prefetcher 28819.535484                       # average HardPFReq mshr miss latency ((Tick/Count))
system.cache_hierarchy.l1dcaches.HardPFReq.avgMshrMissLatency::total 28819.535484                       # average HardPFReq mshr miss latency ((Tick/Count))
system.cache_hierarchy.l1dcaches.ReadReq.hits::processor.cores.core.data       779489                       # number of ReadReq hits (Count)
system.cache_hierarchy.l1dcaches.ReadReq.hits::total       779489                       # number of ReadReq hits (Count)
system.cache_hierarchy.l1dcaches.ReadReq.misses::processor.cores.core.data         1429                       # number of ReadReq misses (Count)
system.cache_hierarchy.l1dcaches.ReadReq.misses::total         1429                       # number of ReadReq misses (Count)
system.cache_hierarchy.l1dcaches.ReadReq.missLatency::processor.cores.core.data     21388000                       # number of ReadReq miss ticks (Tick)
system.cache_hierarchy.l1dcaches.ReadReq.missLatency::total     21388000                       # number of ReadReq miss ticks (Tick)
system.cache_hierarchy.l1dcaches.ReadReq.accesses::processor.cores.core.data       780918                       # number of ReadReq accesses(hits+misses) (Count)
system.cache_hierarchy.l1dcaches.ReadReq.accesses::total       780918                       # number of ReadReq accesses(hits+misses) (Count)
system.cache_hierarchy.l1dcaches.ReadReq.missRate::processor.cores.core.data     0.001830                       # miss rate for ReadReq accesses (Ratio)
system.cache_hierarchy.l1dcaches.ReadReq.missRate::total     0.001830                       # miss rate for ReadReq accesses (Ratio)
system.cache_hierarchy.l1dcaches.ReadReq.avgMissLatency::processor.cores.core.data 14967.109867                       # average ReadReq miss latency ((Tick/Count))
system.cache_hierarchy.l1dcaches.ReadReq.avgMissLatency::total 14967.109867                       # average ReadReq miss latency ((Tick/Count))
system.cache_hierarchy.l1dcaches.ReadReq.mshrHits::processor.cores.core.data          835                       # number of ReadReq MSHR hits (Count)
system.cache_hierarchy.l1dcaches.ReadReq.mshrHits::total          835                       # number of ReadReq MSHR hits (Count)
system.cache_hierarchy.l1dcaches.ReadReq.mshrMisses::processor.cores.core.data          594                       # number of ReadReq MSHR misses (Count)
system.cache_hierarchy.l1dcaches.ReadReq.mshrMisses::total          594                       # number of ReadReq MSHR misses (Count)
system.cache_hierarchy.l1dcaches.ReadReq.mshrUncacheable::processor.cores.core.data           72                       # number of ReadReq MSHR uncacheable (Count)
system.cache_hierarchy.l1dcaches.ReadReq.mshrUncacheable::total           72                       # number of ReadReq MSHR uncacheable (Count)
system.cache_hierarchy.l1dcaches.ReadReq.mshrMissLatency::processor.cores.core.data     10072000                       # number of ReadReq MSHR miss ticks (Tick)
system.cache_hierarchy.l1dcaches.ReadReq.mshrMissLatency::total     10072000                       # number of ReadReq MSHR miss ticks (Tick)
system.cache_hierarchy.l1dcaches.ReadReq.mshrUncacheableLatency::processor.cores.core.data      6336000                       # number of ReadReq MSHR uncacheable ticks (Tick)
system.cache_hierarchy.l1dcaches.ReadReq.mshrUncacheableLatency::total      6336000                       # number of ReadReq MSHR uncacheable ticks (Tick)
system.cache_hierarchy.l1dcaches.ReadReq.mshrMissRate::processor.cores.core.data     0.000761                       # mshr miss rate for ReadReq accesses (Ratio)
system.cache_hierarchy.l1dcaches.ReadReq.mshrMissRate::total     0.000761                       # mshr miss rate for ReadReq accesses (Ratio)
system.cache_hierarchy.l1dcaches.ReadReq.avgMshrMissLatency::processor.cores.core.data 16956.228956                       # average ReadReq mshr miss latency ((Tick/Count))
system.cache_hierarchy.l1dcaches.ReadReq.avgMshrMissLatency::total 16956.228956                       # average ReadReq mshr miss latency ((Tick/Count))
system.cache_hierarchy.l1dcaches.ReadReq.avgMshrUncacheableLatency::processor.cores.core.data        88000                       # average ReadReq mshr uncacheable latency ((Tick/Count))
system.cache_hierarchy.l1dcaches.ReadReq.avgMshrUncacheableLatency::total        88000                       # average ReadReq mshr uncacheable latency ((Tick/Count))
system.cache_hierarchy.l1dcaches.SwapReq.hits::processor.cores.core.data        21431                       # number of SwapReq hits (Count)
system.cache_hierarchy.l1dcaches.SwapReq.hits::total        21431                       # number of SwapReq hits (Count)
system.cache_hierarchy.l1dcaches.SwapReq.misses::processor.cores.core.data            6                       # number of SwapReq misses (Count)
system.cache_hierarchy.l1dcaches.SwapReq.misses::total            6                       # number of SwapReq misses (Count)
system.cache_hierarchy.l1dcaches.SwapReq.missLatency::processor.cores.core.data       388000                       # number of SwapReq miss ticks (Tick)
system.cache_hierarchy.l1dcaches.SwapReq.missLatency::total       388000                       # number of SwapReq miss ticks (Tick)
system.cache_hierarchy.l1dcaches.SwapReq.accesses::processor.cores.core.data        21437                       # number of SwapReq accesses(hits+misses) (Count)
system.cache_hierarchy.l1dcaches.SwapReq.accesses::total        21437                       # number of SwapReq accesses(hits+misses) (Count)
system.cache_hierarchy.l1dcaches.SwapReq.missRate::processor.cores.core.data     0.000280                       # miss rate for SwapReq accesses (Ratio)
system.cache_hierarchy.l1dcaches.SwapReq.missRate::total     0.000280                       # miss rate for SwapReq accesses (Ratio)
system.cache_hierarchy.l1dcaches.SwapReq.avgMissLatency::processor.cores.core.data 64666.666667                       # average SwapReq miss latency ((Tick/Count))
system.cache_hierarchy.l1dcaches.SwapReq.avgMissLatency::total 64666.666667                       # average SwapReq miss latency ((Tick/Count))
system.cache_hierarchy.l1dcaches.SwapReq.mshrMisses::processor.cores.core.data            6                       # number of SwapReq MSHR misses (Count)
system.cache_hierarchy.l1dcaches.SwapReq.mshrMisses::total            6                       # number of SwapReq MSHR misses (Count)
system.cache_hierarchy.l1dcaches.SwapReq.mshrMissLatency::processor.cores.core.data       382000                       # number of SwapReq MSHR miss ticks (Tick)
system.cache_hierarchy.l1dcaches.SwapReq.mshrMissLatency::total       382000                       # number of SwapReq MSHR miss ticks (Tick)
system.cache_hierarchy.l1dcaches.SwapReq.mshrMissRate::processor.cores.core.data     0.000280                       # mshr miss rate for SwapReq accesses (Ratio)
system.cache_hierarchy.l1dcaches.SwapReq.mshrMissRate::total     0.000280                       # mshr miss rate for SwapReq accesses (Ratio)
system.cache_hierarchy.l1dcaches.SwapReq.avgMshrMissLatency::processor.cores.core.data 63666.666667                       # average SwapReq mshr miss latency ((Tick/Count))
system.cache_hierarchy.l1dcaches.SwapReq.avgMshrMissLatency::total 63666.666667                       # average SwapReq mshr miss latency ((Tick/Count))
system.cache_hierarchy.l1dcaches.WriteReq.hits::processor.cores.core.data       853082                       # number of WriteReq hits (Count)
system.cache_hierarchy.l1dcaches.WriteReq.hits::total       853082                       # number of WriteReq hits (Count)
system.cache_hierarchy.l1dcaches.WriteReq.misses::processor.cores.core.data         8054                       # number of WriteReq misses (Count)
system.cache_hierarchy.l1dcaches.WriteReq.misses::total         8054                       # number of WriteReq misses (Count)
system.cache_hierarchy.l1dcaches.WriteReq.missLatency::processor.cores.core.data    128167000                       # number of WriteReq miss ticks (Tick)
system.cache_hierarchy.l1dcaches.WriteReq.missLatency::total    128167000                       # number of WriteReq miss ticks (Tick)
system.cache_hierarchy.l1dcaches.WriteReq.accesses::processor.cores.core.data       861136                       # number of WriteReq accesses(hits+misses) (Count)
system.cache_hierarchy.l1dcaches.WriteReq.accesses::total       861136                       # number of WriteReq accesses(hits+misses) (Count)
system.cache_hierarchy.l1dcaches.WriteReq.missRate::processor.cores.core.data     0.009353                       # miss rate for WriteReq accesses (Ratio)
system.cache_hierarchy.l1dcaches.WriteReq.missRate::total     0.009353                       # miss rate for WriteReq accesses (Ratio)
system.cache_hierarchy.l1dcaches.WriteReq.avgMissLatency::processor.cores.core.data 15913.459151                       # average WriteReq miss latency ((Tick/Count))
system.cache_hierarchy.l1dcaches.WriteReq.avgMissLatency::total 15913.459151                       # average WriteReq miss latency ((Tick/Count))
system.cache_hierarchy.l1dcaches.WriteReq.mshrHits::processor.cores.core.data         7535                       # number of WriteReq MSHR hits (Count)
system.cache_hierarchy.l1dcaches.WriteReq.mshrHits::total         7535                       # number of WriteReq MSHR hits (Count)
system.cache_hierarchy.l1dcaches.WriteReq.mshrMisses::processor.cores.core.data          519                       # number of WriteReq MSHR misses (Count)
system.cache_hierarchy.l1dcaches.WriteReq.mshrMisses::total          519                       # number of WriteReq MSHR misses (Count)
system.cache_hierarchy.l1dcaches.WriteReq.mshrUncacheable::processor.cores.core.data          144                       # number of WriteReq MSHR uncacheable (Count)
system.cache_hierarchy.l1dcaches.WriteReq.mshrUncacheable::total          144                       # number of WriteReq MSHR uncacheable (Count)
system.cache_hierarchy.l1dcaches.WriteReq.mshrMissLatency::processor.cores.core.data     12056000                       # number of WriteReq MSHR miss ticks (Tick)
system.cache_hierarchy.l1dcaches.WriteReq.mshrMissLatency::total     12056000                       # number of WriteReq MSHR miss ticks (Tick)
system.cache_hierarchy.l1dcaches.WriteReq.mshrMissRate::processor.cores.core.data     0.000603                       # mshr miss rate for WriteReq accesses (Ratio)
system.cache_hierarchy.l1dcaches.WriteReq.mshrMissRate::total     0.000603                       # mshr miss rate for WriteReq accesses (Ratio)
system.cache_hierarchy.l1dcaches.WriteReq.avgMshrMissLatency::processor.cores.core.data 23229.287091                       # average WriteReq mshr miss latency ((Tick/Count))
system.cache_hierarchy.l1dcaches.WriteReq.avgMshrMissLatency::total 23229.287091                       # average WriteReq mshr miss latency ((Tick/Count))
system.cache_hierarchy.l1dcaches.power_state.pwrStateResidencyTicks::UNDEFINED 119334698000                       # Cumulative time (in ticks) in various power states (Tick)
system.cache_hierarchy.l1dcaches.prefetcher.demandMshrMisses         1113                       # demands not covered by prefetchs (Count)
system.cache_hierarchy.l1dcaches.prefetcher.pfIssued        18219                       # number of hwpf issued (Count)
system.cache_hierarchy.l1dcaches.prefetcher.pfUnused           62                       # number of HardPF blocks evicted w/o reference (Count)
system.cache_hierarchy.l1dcaches.prefetcher.pfUseful         4242                       # number of useful prefetch (Count)
system.cache_hierarchy.l1dcaches.prefetcher.pfUsefulButMiss         3832                       # number of hit on prefetch but cache block is not in an usable state (Count)
system.cache_hierarchy.l1dcaches.prefetcher.accuracy     0.232834                       # accuracy of the prefetcher (Count)
system.cache_hierarchy.l1dcaches.prefetcher.coverage     0.792157                       # coverage brought by this prefetcher (Count)
system.cache_hierarchy.l1dcaches.prefetcher.pfHitInCache        15396                       # number of prefetches hitting in cache (Count)
system.cache_hierarchy.l1dcaches.prefetcher.pfHitInMSHR         2358                       # number of prefetches hitting in a MSHR (Count)
system.cache_hierarchy.l1dcaches.prefetcher.pfHitInWB            0                       # number of prefetches hit in the Write Buffer (Count)
system.cache_hierarchy.l1dcaches.prefetcher.pfLate        17754                       # number of late prefetches (hitting in cache, MSHR or WB) (Count)
system.cache_hierarchy.l1dcaches.prefetcher.pfIdentified        30163                       # number of prefetch candidates identified (Count)
system.cache_hierarchy.l1dcaches.prefetcher.pfBufferHit        11104                       # number of redundant prefetches already in prefetch queue (Count)
system.cache_hierarchy.l1dcaches.prefetcher.pfInCache            0                       # number of redundant prefetches already in cache/mshr dropped (Count)
system.cache_hierarchy.l1dcaches.prefetcher.pfRemovedDemand            0                       # number of prefetches dropped due to a demand for the same address (Count)
system.cache_hierarchy.l1dcaches.prefetcher.pfRemovedFull            0                       # number of prefetches dropped due to prefetch queue size (Count)
system.cache_hierarchy.l1dcaches.prefetcher.pfSpanPage         2437                       # number of prefetches that crossed the page (Count)
system.cache_hierarchy.l1dcaches.prefetcher.pfUsefulSpanPage          867                       # number of prefetches that is useful and crossed the page (Count)
system.cache_hierarchy.l1dcaches.prefetcher.power_state.pwrStateResidencyTicks::UNDEFINED 119334698000                       # Cumulative time (in ticks) in various power states (Tick)
system.cache_hierarchy.l1dcaches.tags.tagsInUse   511.920325                       # Average ticks per tags in use ((Tick/Count))
system.cache_hierarchy.l1dcaches.tags.totalRefs       382771                       # Total number of references to valid blocks. (Count)
system.cache_hierarchy.l1dcaches.tags.sampledRefs         1187                       # Sample count of references to valid blocks. (Count)
system.cache_hierarchy.l1dcaches.tags.avgRefs   322.469250                       # Average number of references to valid blocks. ((Count/Count))
system.cache_hierarchy.l1dcaches.tags.warmupTick            0                       # The tick when the warmup percentage was hit. (Tick)
system.cache_hierarchy.l1dcaches.tags.occupancies::cache_hierarchy.l1dcaches.prefetcher   192.963830                       # Average occupied blocks per tick, per requestor ((Count/Tick))
system.cache_hierarchy.l1dcaches.tags.occupancies::processor.cores.core.data   318.956495                       # Average occupied blocks per tick, per requestor ((Count/Tick))
system.cache_hierarchy.l1dcaches.tags.avgOccs::cache_hierarchy.l1dcaches.prefetcher     0.376882                       # Average percentage of cache occupancy ((Ratio/Tick))
system.cache_hierarchy.l1dcaches.tags.avgOccs::processor.cores.core.data     0.622962                       # Average percentage of cache occupancy ((Ratio/Tick))
system.cache_hierarchy.l1dcaches.tags.avgOccs::total     0.999844                       # Average percentage of cache occupancy ((Ratio/Tick))
system.cache_hierarchy.l1dcaches.tags.occupanciesTaskId::1022          214                       # Occupied blocks per task id (Count)
system.cache_hierarchy.l1dcaches.tags.occupanciesTaskId::1024          298                       # Occupied blocks per task id (Count)
system.cache_hierarchy.l1dcaches.tags.ageTaskId_1022::2           36                       # Occupied blocks per task id, per block age (Count)
system.cache_hierarchy.l1dcaches.tags.ageTaskId_1022::3          174                       # Occupied blocks per task id, per block age (Count)
system.cache_hierarchy.l1dcaches.tags.ageTaskId_1022::4            4                       # Occupied blocks per task id, per block age (Count)
system.cache_hierarchy.l1dcaches.tags.ageTaskId_1024::0           66                       # Occupied blocks per task id, per block age (Count)
system.cache_hierarchy.l1dcaches.tags.ageTaskId_1024::2            5                       # Occupied blocks per task id, per block age (Count)
system.cache_hierarchy.l1dcaches.tags.ageTaskId_1024::3          218                       # Occupied blocks per task id, per block age (Count)
system.cache_hierarchy.l1dcaches.tags.ageTaskId_1024::4            9                       # Occupied blocks per task id, per block age (Count)
system.cache_hierarchy.l1dcaches.tags.ratioOccsTaskId::1022     0.417969                       # Ratio of occupied blocks and all blocks, per task id (Ratio)
system.cache_hierarchy.l1dcaches.tags.ratioOccsTaskId::1024     0.582031                       # Ratio of occupied blocks and all blocks, per task id (Ratio)
system.cache_hierarchy.l1dcaches.tags.tagAccesses     13309115                       # Number of tag accesses (Count)
system.cache_hierarchy.l1dcaches.tags.dataAccesses     13309115                       # Number of data accesses (Count)
system.cache_hierarchy.l1dcaches.tags.power_state.pwrStateResidencyTicks::UNDEFINED 119334698000                       # Cumulative time (in ticks) in various power states (Tick)
system.cache_hierarchy.l1icaches.demandHits::processor.cores.core.inst      1170412                       # number of demand (read+write) hits (Count)
system.cache_hierarchy.l1icaches.demandHits::total      1170412                       # number of demand (read+write) hits (Count)
system.cache_hierarchy.l1icaches.overallHits::processor.cores.core.inst      1170412                       # number of overall hits (Count)
system.cache_hierarchy.l1icaches.overallHits::total      1170412                       # number of overall hits (Count)
system.cache_hierarchy.l1icaches.demandMisses::processor.cores.core.inst         2214                       # number of demand (read+write) misses (Count)
system.cache_hierarchy.l1icaches.demandMisses::total         2214                       # number of demand (read+write) misses (Count)
system.cache_hierarchy.l1icaches.overallMisses::processor.cores.core.inst         2214                       # number of overall misses (Count)
system.cache_hierarchy.l1icaches.overallMisses::total         2214                       # number of overall misses (Count)
system.cache_hierarchy.l1icaches.demandMissLatency::processor.cores.core.inst     51991000                       # number of demand (read+write) miss ticks (Tick)
system.cache_hierarchy.l1icaches.demandMissLatency::total     51991000                       # number of demand (read+write) miss ticks (Tick)
system.cache_hierarchy.l1icaches.overallMissLatency::processor.cores.core.inst     51991000                       # number of overall miss ticks (Tick)
system.cache_hierarchy.l1icaches.overallMissLatency::total     51991000                       # number of overall miss ticks (Tick)
system.cache_hierarchy.l1icaches.demandAccesses::processor.cores.core.inst      1172626                       # number of demand (read+write) accesses (Count)
system.cache_hierarchy.l1icaches.demandAccesses::total      1172626                       # number of demand (read+write) accesses (Count)
system.cache_hierarchy.l1icaches.overallAccesses::processor.cores.core.inst      1172626                       # number of overall (read+write) accesses (Count)
system.cache_hierarchy.l1icaches.overallAccesses::total      1172626                       # number of overall (read+write) accesses (Count)
system.cache_hierarchy.l1icaches.demandMissRate::processor.cores.core.inst     0.001888                       # miss rate for demand accesses (Ratio)
system.cache_hierarchy.l1icaches.demandMissRate::total     0.001888                       # miss rate for demand accesses (Ratio)
system.cache_hierarchy.l1icaches.overallMissRate::processor.cores.core.inst     0.001888                       # miss rate for overall accesses (Ratio)
system.cache_hierarchy.l1icaches.overallMissRate::total     0.001888                       # miss rate for overall accesses (Ratio)
system.cache_hierarchy.l1icaches.demandAvgMissLatency::processor.cores.core.inst 23482.836495                       # average overall miss latency in ticks ((Tick/Count))
system.cache_hierarchy.l1icaches.demandAvgMissLatency::total 23482.836495                       # average overall miss latency in ticks ((Tick/Count))
system.cache_hierarchy.l1icaches.overallAvgMissLatency::processor.cores.core.inst 23482.836495                       # average overall miss latency ((Tick/Count))
system.cache_hierarchy.l1icaches.overallAvgMissLatency::total 23482.836495                       # average overall miss latency ((Tick/Count))
system.cache_hierarchy.l1icaches.blockedCycles::no_mshrs            0                       # number of cycles access was blocked (Cycle)
system.cache_hierarchy.l1icaches.blockedCycles::no_targets            0                       # number of cycles access was blocked (Cycle)
system.cache_hierarchy.l1icaches.blockedCauses::no_mshrs            0                       # number of times access was blocked (Count)
system.cache_hierarchy.l1icaches.blockedCauses::no_targets            0                       # number of times access was blocked (Count)
system.cache_hierarchy.l1icaches.avgBlocked::no_mshrs          nan                       # average number of cycles each access was blocked ((Cycle/Count))
[...]
system.processor.cores.core.commit.committedInstType_0::SimdPredAlu            0      0.00%     67.98% # Class of committed instruction (Count)
system.processor.cores.core.commit.committedInstType_0::MemRead       913322     17.35%     85.32% # Class of committed instruction (Count)
system.processor.cores.core.commit.committedInstType_0::MemWrite       770366     14.63%     99.96% # Class of committed instruction (Count)
system.processor.cores.core.commit.committedInstType_0::FloatMemRead         1154      0.02%     99.98% # Class of committed instruction (Count)
system.processor.cores.core.commit.committedInstType_0::FloatMemWrite         1153      0.02%    100.00% # Class of committed instruction (Count)
system.processor.cores.core.commit.committedInstType_0::IprAccess            0      0.00%    100.00% # Class of committed instruction (Count)
system.processor.cores.core.commit.committedInstType_0::InstPrefetch            0      0.00%    100.00% # Class of committed instruction (Count)
system.processor.cores.core.commit.committedInstType_0::total      5265003                       # Class of committed instruction (Count)
system.processor.cores.core.commit.commitEligibleSamples       329770                       # number cycles where commit BW limit reached (Cycle)
system.processor.cores.core.decode.idleCycles       136979                       # Number of cycles decode is idle (Cycle)
system.processor.cores.core.decode.blockedCycles      2023067                       # Number of cycles decode is blocked (Cycle)
system.processor.cores.core.decode.runCycles       734663                       # Number of cycles decode is running (Cycle)
system.processor.cores.core.decode.unblockCycles       161516                       # Number of cycles decode is unblocking (Cycle)
system.processor.cores.core.decode.squashCycles        22924                       # Number of cycles decode is squashing (Cycle)
system.processor.cores.core.decode.branchResolved       108936                       # Number of times decode resolved a branch (Count)
system.processor.cores.core.decode.branchMispred          158                       # Number of times decode detected a branch misprediction (Count)
system.processor.cores.core.decode.decodedInsts      6323434                       # Number of instructions handled by decode (Count)
system.processor.cores.core.decode.squashedInsts          659                       # Number of squashed instructions handled by decode (Count)
system.processor.cores.core.fetch.icacheStallCycles        32625                       # Number of cycles fetch is stalled on an Icache miss (Cycle)
system.processor.cores.core.fetch.insts       7146906                       # Number of instructions fetch has processed (Count)
system.processor.cores.core.fetch.branches       959077                       # Number of branches that fetch encountered (Count)
system.processor.cores.core.fetch.predictedBranches       792677                       # Number of branches that fetch has predicted taken (Count)
system.processor.cores.core.fetch.cycles      3021520                       # Number of cycles fetch has run and was not squashing or blocked (Cycle)
system.processor.cores.core.fetch.squashCycles        46152                       # Number of cycles fetch has spent squashing (Cycle)
system.processor.cores.core.fetch.tlbCycles          730                       # Number of cycles fetch has spent waiting for tlb (Cycle)
system.processor.cores.core.fetch.miscStallCycles          788                       # Number of cycles fetch has spent waiting on interrupts, or bad addresses, or out of MSHRs (Cycle)
system.processor.cores.core.fetch.pendingTrapStallCycles          410                       # Number of stall cycles due to pending traps (Cycle)
system.processor.cores.core.fetch.cacheLines      1029835                       # Number of cache lines fetched (Count)
system.processor.cores.core.fetch.icacheSquashes          435                       # Number of outstanding Icache misses that were squashed (Count)
system.processor.cores.core.fetch.tlbSquashes           11                       # Number of outstanding ITLB misses that were squashed (Count)
system.processor.cores.core.fetch.nisnDist::samples      3079149                       # Number of instructions fetched each cycle (Total) (Count)
system.processor.cores.core.fetch.nisnDist::mean     2.324247                       # Number of instructions fetched each cycle (Total) (Count)
system.processor.cores.core.fetch.nisnDist::stdev     3.010512                       # Number of instructions fetched each cycle (Total) (Count)
system.processor.cores.core.fetch.nisnDist::underflows            0      0.00%      0.00% # Number of instructions fetched each cycle (Total) (Count)
system.processor.cores.core.fetch.nisnDist::0      1633282     53.04%     53.04% # Number of instructions fetched each cycle (Total) (Count)
system.processor.cores.core.fetch.nisnDist::1       178079      5.78%     58.83% # Number of instructions fetched each cycle (Total) (Count)
system.processor.cores.core.fetch.nisnDist::2       165998      5.39%     64.22% # Number of instructions fetched each cycle (Total) (Count)
system.processor.cores.core.fetch.nisnDist::3        87698      2.85%     67.07% # Number of instructions fetched each cycle (Total) (Count)
system.processor.cores.core.fetch.nisnDist::4       228539      7.42%     74.49% # Number of instructions fetched each cycle (Total) (Count)
system.processor.cores.core.fetch.nisnDist::5       136615      4.44%     78.92% # Number of instructions fetched each cycle (Total) (Count)
system.processor.cores.core.fetch.nisnDist::6       191719      6.23%     85.15% # Number of instructions fetched each cycle (Total) (Count)
system.processor.cores.core.fetch.nisnDist::7        21762      0.71%     85.86% # Number of instructions fetched each cycle (Total) (Count)
system.processor.cores.core.fetch.nisnDist::8       435457     14.14%    100.00% # Number of instructions fetched each cycle (Total) (Count)
system.processor.cores.core.fetch.nisnDist::overflows            0      0.00%    100.00% # Number of instructions fetched each cycle (Total) (Count)
system.processor.cores.core.fetch.nisnDist::min_value            0                       # Number of instructions fetched each cycle (Total) (Count)
system.processor.cores.core.fetch.nisnDist::max_value            8                       # Number of instructions fetched each cycle (Total) (Count)
system.processor.cores.core.fetch.nisnDist::total      3079149                       # Number of instructions fetched each cycle (Total) (Count)
system.processor.cores.core.fetch.branchRate     0.311446                       # Number of branch fetches per cycle (Ratio)
system.processor.cores.core.fetch.rate       2.320854                       # Number of inst fetches per cycle ((Count/Cycle))
system.processor.cores.core.iew.idleCycles            0                       # Number of cycles IEW is idle (Cycle)
system.processor.cores.core.iew.squashCycles        22924                       # Number of cycles IEW is squashing (Cycle)
system.processor.cores.core.iew.blockCycles        98062                       # Number of cycles IEW is blocking (Cycle)
system.processor.cores.core.iew.unblockCycles          203                       # Number of cycles IEW is unblocking (Cycle)
system.processor.cores.core.iew.dispatchedInsts      6120896                       # Number of instructions dispatched to IQ (Count)
system.processor.cores.core.iew.dispSquashedInsts          576                       # Number of squashed instructions skipped by dispatch (Count)
system.processor.cores.core.iew.dispLoadInsts      1111190                       # Number of dispatched load instructions (Count)
system.processor.cores.core.iew.dispStoreInsts       920526                       # Number of dispatched store instructions (Count)
system.processor.cores.core.iew.dispNonSpecInsts       125774                       # Number of dispatched non-speculative instructions (Count)
system.processor.cores.core.iew.iqFullEvents           47                       # Number of times the IQ has become full, causing a stall (Count)
system.processor.cores.core.iew.lsqFullEvents          107                       # Number of times the LSQ has become full, causing a stall (Count)
system.processor.cores.core.iew.memOrderViolationEvents        19801                       # Number of memory order violations (Count)
system.processor.cores.core.iew.predictedTakenIncorrect         1646                       # Number of branches that were predicted taken incorrectly (Count)
system.processor.cores.core.iew.predictedNotTakenIncorrect         2936                       # Number of branches that were predicted not taken incorrectly (Count)
system.processor.cores.core.iew.branchMispredicts         4582                       # Number of branch mispredicts detected at execute (Count)
system.processor.cores.core.iew.instsToCommit      5814771                       # Cumulative count of insts sent to commit (Count)
system.processor.cores.core.iew.writebackCount      5812373                       # Cumulative count of insts written-back (Count)
system.processor.cores.core.iew.producerInst      3912077                       # Number of instructions producing a value (Count)
system.processor.cores.core.iew.consumerInst      5866356                       # Number of instructions consuming a value (Count)
system.processor.cores.core.iew.wbRate       1.887483                       # Insts written-back per cycle ((Count/Cycle))
system.processor.cores.core.iew.wbFanout     0.666867                       # Average fanout of values written-back ((Count/Count))
system.processor.cores.core.lsq0.forwLoads       331855                       # Number of loads that had data forwarded from stores (Count)
system.processor.cores.core.lsq0.squashedLoads       215694                       # Number of loads squashed (Count)
system.processor.cores.core.lsq0.ignoredResponses           41                       # Number of memory responses ignored because the instruction is squashed (Count)
system.processor.cores.core.lsq0.memOrderViolation        19801                       # Number of memory ordering violations (Count)
system.processor.cores.core.lsq0.squashedStores       129991                       # Number of stores squashed (Count)
system.processor.cores.core.lsq0.rescheduledLoads          441                       # Number of loads that were rescheduled (Count)
system.processor.cores.core.lsq0.blockedByCache          364                       # Number of times an access to memory failed due to the cache being blocked (Count)
system.processor.cores.core.lsq0.loadToUse::samples       895496                       # Distribution of cycle latency between the first time a load is issued and its completion (Unspecified)
system.processor.cores.core.lsq0.loadToUse::mean     2.323631                       # Distribution of cycle latency between the first time a load is issued and its completion (Unspecified)
system.processor.cores.core.lsq0.loadToUse::stdev     1.125916                       # Distribution of cycle latency between the first time a load is issued and its completion (Unspecified)
system.processor.cores.core.lsq0.loadToUse::0-9       894609     99.90%     99.90% # Distribution of cycle latency between the first time a load is issued and its completion (Unspecified)
system.processor.cores.core.lsq0.loadToUse::10-19          715      0.08%     99.98% # Distribution of cycle latency between the first time a load is issued and its completion (Unspecified)
system.processor.cores.core.lsq0.loadToUse::20-29           53      0.01%     99.99% # Distribution of cycle latency between the first time a load is issued and its completion (Unspecified)
system.processor.cores.core.lsq0.loadToUse::30-39           21      0.00%     99.99% # Distribution of cycle latency between the first time a load is issued and its completion (Unspecified)
system.processor.cores.core.lsq0.loadToUse::40-49           28      0.00%     99.99% # Distribution of cycle latency between the first time a load is issued and its completion (Unspecified)
system.processor.cores.core.lsq0.loadToUse::50-59            6      0.00%     99.99% # Distribution of cycle latency between the first time a load is issued and its completion (Unspecified)
system.processor.cores.core.lsq0.loadToUse::60-69           32      0.00%    100.00% # Distribution of cycle latency between the first time a load is issued and its completion (Unspecified)
system.processor.cores.core.lsq0.loadToUse::130-139           30      0.00%    100.00% # Distribution of cycle latency between the first time a load is issued and its completion (Unspecified)
system.processor.cores.core.lsq0.loadToUse::140-149            1      0.00%    100.00% # Distribution of cycle latency between the first time a load is issued and its completion (Unspecified)
system.processor.cores.core.lsq0.loadToUse::160-169            1      0.00%    100.00% # Distribution of cycle latency between the first time a load is issued and its completion (Unspecified)
system.processor.cores.core.lsq0.loadToUse::min_value            2                       # Distribution of cycle latency between the first time a load is issued and its completion (Unspecified)
system.processor.cores.core.lsq0.loadToUse::max_value          168                       # Distribution of cycle latency between the first time a load is issued and its completion (Unspecified)
system.processor.cores.core.lsq0.loadToUse::total       895496                       # Distribution of cycle latency between the first time a load is issued and its completion (Unspecified)
system.processor.cores.core.mmu.dtb.readHits      1029807                       # read hits (Count)
system.processor.cores.core.mmu.dtb.readMisses          260                       # read misses (Count)
system.processor.cores.core.mmu.dtb.readAccesses      1030067                       # read accesses (Count)
system.processor.cores.core.mmu.dtb.writeHits       826486                       # write hits (Count)
system.processor.cores.core.mmu.dtb.writeMisses           54                       # write misses (Count)
system.processor.cores.core.mmu.dtb.writeAccesses       826540                       # write accesses (Count)
system.processor.cores.core.mmu.dtb.hits      1856293                       # Total TLB (read and write) hits (Count)
system.processor.cores.core.mmu.dtb.misses          314                       # Total TLB (read and write) misses (Count)
system.processor.cores.core.mmu.dtb.accesses      1856607                       # Total TLB (read and write) accesses (Count)
system.processor.cores.core.mmu.dtb.walker.power_state.pwrStateResidencyTicks::UNDEFINED   3079442000                       # Cumulative time (in ticks) in various power states (Tick)
system.processor.cores.core.mmu.itb.readHits      1029844                       # read hits (Count)
system.processor.cores.core.mmu.itb.readMisses          198                       # read misses (Count)
system.processor.cores.core.mmu.itb.readAccesses      1030042                       # read accesses (Count)
system.processor.cores.core.mmu.itb.writeHits            0                       # write hits (Count)
system.processor.cores.core.mmu.itb.writeMisses            0                       # write misses (Count)
system.processor.cores.core.mmu.itb.writeAccesses            0                       # write accesses (Count)
system.processor.cores.core.mmu.itb.hits      1029844                       # Total TLB (read and write) hits (Count)
system.processor.cores.core.mmu.itb.misses          198                       # Total TLB (read and write) misses (Count)
system.processor.cores.core.mmu.itb.accesses      1030042                       # Total TLB (read and write) accesses (Count)
system.processor.cores.core.mmu.itb.walker.power_state.pwrStateResidencyTicks::UNDEFINED   3079442000                       # Cumulative time (in ticks) in various power states (Tick)
system.processor.cores.core.power_state.pwrStateResidencyTicks::ON   3079442000                       # Cumulative time (in ticks) in various power states (Tick)
system.processor.cores.core.rename.squashCycles        22924                       # Number of cycles rename is squashing (Cycle)
system.processor.cores.core.rename.idleCycles       209913                       # Number of cycles rename is idle (Cycle)
system.processor.cores.core.rename.blockCycles        99767                       # Number of cycles rename is blocking (Cycle)
system.processor.cores.core.rename.serializeStallCycles      1746754                       # count of cycles rename stalled for serializing inst (Cycle)
system.processor.cores.core.rename.runCycles       820412                       # Number of cycles rename is running (Cycle)
system.processor.cores.core.rename.unblockCycles       179379                       # Number of cycles rename is unblocking (Cycle)
system.processor.cores.core.rename.renamedInsts      6147992                       # Number of instructions processed by rename (Count)
system.processor.cores.core.rename.ROBFullEvents          256                       # Number of times rename has blocked due to ROB full (Count)
system.processor.cores.core.rename.IQFullEvents        59353                       # Number of times rename has blocked due to IQ full (Count)
system.processor.cores.core.rename.LQFullEvents         5226                       # Number of times rename has blocked due to LQ full (Count)
system.processor.cores.core.rename.SQFullEvents         3766                       # Number of times rename has blocked due to SQ full (Count)
system.processor.cores.core.rename.renamedOperands      4694157                       # Number of destination operands rename has renamed (Count)
system.processor.cores.core.rename.lookups      7548306                       # Number of register rename lookups that rename has made (Count)
system.processor.cores.core.rename.intLookups      7384858                       # Number of integer rename lookups (Count)
system.processor.cores.core.rename.fpLookups         1158                       # Number of floating rename lookups (Count)
system.processor.cores.core.rename.committedMaps      4054893                       # Number of HB maps that are committed (Count)
system.processor.cores.core.rename.undoneMaps       639264                       # Number of HB maps that are undone due to squashing (Count)
system.processor.cores.core.rename.serializing        96974                       # count of serializing insts renamed (Count)
system.processor.cores.core.rename.tempSerializing        97057                       # count of temporary serializing insts renamed (Count)
system.processor.cores.core.rename.skidInsts       737824                       # count of insts added to the skid buffer (Count)
system.processor.cores.core.rob.reads         8747978                       # The number of ROB reads (Count)
system.processor.cores.core.rob.writes       12358347                       # The number of ROB writes (Count)
system.processor.cores.core.thread_0.numInsts      5255495                       # Number of Instructions committed (Count)
system.processor.cores.core.thread_0.numOps      5265003                       # Number of Ops committed (Count)
system.processor.cores.core.thread_0.numMemRefs            0                       # Number of Memory References (Count)
system.workload.inst.arm                            0                       # number of arm instructions executed (Count)
system.workload.inst.quiesce                        0                       # number of quiesce instructions executed (Count)

---------- End Simulation Statistics   ----------
