
---------- Begin Simulation Statistics ----------
simSeconds                                   0.040985                       # Number of seconds simulated (Second)
simTicks                                  40985029000                       # Number of ticks simulated (Tick)
finalTick                                158011023000                       # Number of ticks from beginning of simulation (restored from checkpoints and never reset) (Tick)
simFreq                                  1000000000000                       # The number of ticks per simulated second ((Tick/Second))
hostSeconds                                    161.51                       # Real time elapsed on the host (Second)
hostTickRate                                253756232                       # The number of ticks simulated per host second (ticks/s) ((Tick/Second))
hostMemory                                     158444                       # Number of bytes of host memory used (Byte)
simInsts                                    220121635                       # Number of instructions simulated (Count)
simOps                                      220658289                       # Number of ops (including micro ops) simulated (Count)
hostInstRate                                  1362869                       # Simulator instruction rate (inst/s) ((Count/Second))
hostOpRate                                    1366191                       # Simulator op (including micro ops) rate (op/s) ((Count/Second))
system.bridge.power_state.pwrStateResidencyTicks::UNDEFINED 158011023000                       # Cumulative time (in ticks) in various power states (Tick)
system.cache_hierarchy.dptw_caches.demandHits::processor.cores.core.mmu.dtb.walker        15477                       # number of demand (read+write) hits (Count)
system.cache_hierarchy.dptw_caches.demandHits::total        15477                       # number of demand (read+write) hits (Count)
system.cache_hierarchy.dptw_caches.overallHits::processor.cores.core.mmu.dtb.walker        15477                       # number of overall hits (Count)
system.cache_hierarchy.dptw_caches.overallHits::total        15477                       # number of overall hits (Count)
system.cache_hierarchy.dptw_caches.demandMisses::processor.cores.core.mmu.dtb.walker         1417                       # number of demand (read+write) misses (Count)
system.cache_hierarchy.dptw_caches.demandMisses::total         1417                       # number of demand (read+write) misses (Count)
system.cache_hierarchy.dptw_caches.overallMisses::processor.cores.core.mmu.dtb.walker         1417                       # number of overall misses (Count)
system.cache_hierarchy.dptw_caches.overallMisses::total         1417                       # number of overall misses (Count)
system.cache_hierarchy.dptw_caches.demandMissLatency::processor.cores.core.mmu.dtb.walker     23448000                       # number of demand (read+write) miss ticks (Tick)
system.cache_hierarchy.dptw_caches.demandMissLatency::total     23448000                       # number of demand (read+write) miss ticks (Tick)
system.cache_hierarchy.dptw_caches.overallMissLatency::processor.cores.core.mmu.dtb.walker     23448000                       # number of overall miss ticks (Tick)
system.cache_hierarchy.dptw_caches.overallMissLatency::total     23448000                       # number of overall miss ticks (Tick)
system.cache_hierarchy.dptw_caches.demandAccesses::processor.cores.core.mmu.dtb.walker        16894                       # number of demand (read+write) accesses (Count)
system.cache_hierarchy.dptw_caches.demandAccesses::total        16894                       # number of demand (read+write) accesses (Count)
system.cache_hierarchy.dptw_caches.overallAccesses::processor.cores.core.mmu.dtb.walker        16894                       # number of overall (read+write) accesses (Count)
system.cache_hierarchy.dptw_caches.overallAccesses::total        16894                       # number of overall (read+write) accesses (Count)
system.cache_hierarchy.dptw_caches.demandMissRate::processor.cores.core.mmu.dtb.walker     0.083876                       # miss rate for demand accesses (Ratio)
system.cache_hierarchy.dptw_caches.demandMissRate::total     0.083876                       # miss rate for demand accesses (Ratio)
system.cache_hierarchy.dptw_caches.overallMissRate::processor.cores.core.mmu.dtb.walker     0.083876                       # miss rate for overall accesses (Ratio)
system.cache_hierarchy.dptw_caches.overallMissRate::total     0.083876                       # miss rate for overall accesses (Ratio)
system.cache_hierarchy.dptw_caches.demandAvgMissLatency::processor.cores.core.mmu.dtb.walker 16547.635850                       # average overall miss latency in ticks ((Tick/Count))
system.cache_hierarchy.dptw_caches.demandAvgMissLatency::total 16547.635850                       # average overall miss latency in ticks ((Tick/Count))
system.cache_hierarchy.dptw_caches.overallAvgMissLatency::processor.cores.core.mmu.dtb.walker 16547.635850                       # average overall miss latency ((Tick/Count))
system.cache_hierarchy.dptw_caches.overallAvgMissLatency::total 16547.635850                       # average overall miss latency ((Tick/Count))
system.cache_hierarchy.dptw_caches.blockedCycles::no_mshrs            0                       # number of cycles access was blocked (Cycle)
system.cache_hierarchy.dptw_caches.blockedCycles::no_targets            0                       # number of cycles access was blocked (Cycle)
system.cache_hierarchy.dptw_caches.blockedCauses::no_mshrs            0                       # number of times access was blocked (Count)
system.cache_hierarchy.dptw_caches.blockedCauses::no_targets            0                       # number of times access was blocked (Count)
system.cache_hierarchy.dptw_caches.avgBlocked::no_mshrs          nan                       # average number of cycles each access was blocked ((Cycle/Count))
system.cache_hierarchy.dptw_caches.avgBlocked::no_targets          nan                       # average number of cycles each access was blocked ((Cycle/Count))
system.cache_hierarchy.dptw_caches.writebacks::writebacks         1309                       # number of writebacks (Count)
system.cache_hierarchy.dptw_caches.writebacks::total         1309                       # number of writebacks (Count)
system.cache_hierarchy.dptw_caches.demandMshrMisses::processor.cores.core.mmu.dtb.walker         1417                       # number of demand (read+write) MSHR misses (Count)
system.cache_hierarchy.dptw_caches.demandMshrMisses::total         1417                       # number of demand (read+write) MSHR misses (Count)
system.cache_hierarchy.dptw_caches.overallMshrMisses::processor.cores.core.mmu.dtb.walker         1417                       # number of overall MSHR misses (Count)
system.cache_hierarchy.dptw_caches.overallMshrMisses::total         1417                       # number of overall MSHR misses (Count)
system.cache_hierarchy.dptw_caches.demandMshrMissLatency::processor.cores.core.mmu.dtb.walker     22031000                       # number of demand (read+write) MSHR miss ticks (Tick)
system.cache_hierarchy.dptw_caches.demandMshrMissLatency::total     22031000                       # number of demand (read+write) MSHR miss ticks (Tick)
system.cache_hierarchy.dptw_caches.overallMshrMissLatency::processor.cores.core.mmu.dtb.walker     22031000                       # number of overall MSHR miss ticks (Tick)
system.cache_hierarchy.dptw_caches.overallMshrMissLatency::total     22031000                       # number of overall MSHR miss ticks (Tick)
system.cache_hierarchy.dptw_caches.demandMshrMissRate::processor.cores.core.mmu.dtb.walker     0.083876                       # mshr miss ratio for demand accesses (Ratio)
system.cache_hierarchy.dptw_caches.demandMshrMissRate::total     0.083876                       # mshr miss ratio for demand accesses (Ratio)
system.cache_hierarchy.dptw_caches.overallMshrMissRate::processor.cores.core.mmu.dtb.walker     0.083876                       # mshr miss ratio for overall accesses (Ratio)
system.cache_hierarchy.dptw_caches.overallMshrMissRate::total     0.083876                       # mshr miss ratio for overall accesses (Ratio)
system.cache_hierarchy.dptw_caches.demandAvgMshrMissLatency::processor.cores.core.mmu.dtb.walker 15547.635850                       # average overall mshr miss latency ((Tick/Count))
system.cache_hierarchy.dptw_caches.demandAvgMshrMissLatency::total 15547.635850                       # average overall mshr miss latency ((Tick/Count))
system.cache_hierarchy.dptw_caches.overallAvgMshrMissLatency::processor.cores.core.mmu.dtb.walker 15547.635850                       # average overall mshr miss latency ((Tick/Count))
system.cache_hierarchy.dptw_caches.overallAvgMshrMissLatency::total 15547.635850                       # average overall mshr miss latency ((Tick/Count))
system.cache_hierarchy.dptw_caches.replacements         1309                       # number of replacements (Count)
system.cache_hierarchy.dptw_caches.ReadReq.hits::processor.cores.core.mmu.dtb.walker        15404                       # number of ReadReq hits (Count)
system.cache_hierarchy.dptw_caches.ReadReq.hits::total        15404                       # number of ReadReq hits (Count)
system.cache_hierarchy.dptw_caches.ReadReq.misses::processor.cores.core.mmu.dtb.walker         1398                       # number of ReadReq misses (Count)
system.cache_hierarchy.dptw_caches.ReadReq.misses::total         1398                       # number of ReadReq misses (Count)
system.cache_hierarchy.dptw_caches.ReadReq.missLatency::processor.cores.core.mmu.dtb.walker     23301000                       # number of ReadReq miss ticks (Tick)
system.cache_hierarchy.dptw_caches.ReadReq.missLatency::total     23301000                       # number of ReadReq miss ticks (Tick)
system.cache_hierarchy.dptw_caches.ReadReq.accesses::processor.cores.core.mmu.dtb.walker        16802                       # number of ReadReq accesses(hits+misses) (Count)
system.cache_hierarchy.dptw_caches.ReadReq.accesses::total        16802                       # number of ReadReq accesses(hits+misses) (Count)
system.cache_hierarchy.dptw_caches.ReadReq.missRate::processor.cores.core.mmu.dtb.walker     0.083204                       # miss rate for ReadReq accesses (Ratio)
system.cache_hierarchy.dptw_caches.ReadReq.missRate::total     0.083204                       # miss rate for ReadReq accesses (Ratio)
system.cache_hierarchy.dptw_caches.ReadReq.avgMissLatency::processor.cores.core.mmu.dtb.walker 16667.381974                       # average ReadReq miss latency ((Tick/Count))
system.cache_hierarchy.dptw_caches.ReadReq.avgMissLatency::total 16667.381974                       # average ReadReq miss latency ((Tick/Count))
system.cache_hierarchy.dptw_caches.ReadReq.mshrMisses::processor.cores.core.mmu.dtb.walker         1398                       # number of ReadReq MSHR misses (Count)
system.cache_hierarchy.dptw_caches.ReadReq.mshrMisses::total         1398                       # number of ReadReq MSHR misses (Count)
system.cache_hierarchy.dptw_caches.ReadReq.mshrMissLatency::processor.cores.core.mmu.dtb.walker     21903000                       # number of ReadReq MSHR miss ticks (Tick)
system.cache_hierarchy.dptw_caches.ReadReq.mshrMissLatency::total     21903000                       # number of ReadReq MSHR miss ticks (Tick)
system.cache_hierarchy.dptw_caches.ReadReq.mshrMissRate::processor.cores.core.mmu.dtb.walker     0.083204                       # mshr miss rate for ReadReq accesses (Ratio)
system.cache_hierarchy.dptw_caches.ReadReq.mshrMissRate::total     0.083204                       # mshr miss rate for ReadReq accesses (Ratio)
system.cache_hierarchy.dptw_caches.ReadReq.avgMshrMissLatency::processor.cores.core.mmu.dtb.walker 15667.381974                       # average ReadReq mshr miss latency ((Tick/Count))
system.cache_hierarchy.dptw_caches.ReadReq.avgMshrMissLatency::total 15667.381974                       # average ReadReq mshr miss latency ((Tick/Count))
system.cache_hierarchy.dptw_caches.WriteReq.hits::processor.cores.core.mmu.dtb.walker           73                       # number of WriteReq hits (Count)
system.cache_hierarchy.dptw_caches.WriteReq.hits::total           73                       # number of WriteReq hits (Count)
system.cache_hierarchy.dptw_caches.WriteReq.misses::processor.cores.core.mmu.dtb.walker           19                       # number of WriteReq misses (Count)
system.cache_hierarchy.dptw_caches.WriteReq.misses::total           19                       # number of WriteReq misses (Count)
system.cache_hierarchy.dptw_caches.WriteReq.missLatency::processor.cores.core.mmu.dtb.walker       147000                       # number of WriteReq miss ticks (Tick)
system.cache_hierarchy.dptw_caches.WriteReq.missLatency::total       147000                       # number of WriteReq miss ticks (Tick)
system.cache_hierarchy.dptw_caches.WriteReq.accesses::processor.cores.core.mmu.dtb.walker           92                       # number of WriteReq accesses(hits+misses) (Count)
system.cache_hierarchy.dptw_caches.WriteReq.accesses::total           92                       # number of WriteReq accesses(hits+misses) (Count)
system.cache_hierarchy.dptw_caches.WriteReq.missRate::processor.cores.core.mmu.dtb.walker     0.206522                       # miss rate for WriteReq accesses (Ratio)
system.cache_hierarchy.dptw_caches.WriteReq.missRate::total     0.206522                       # miss rate for WriteReq accesses (Ratio)
system.cache_hierarchy.dptw_caches.WriteReq.avgMissLatency::processor.cores.core.mmu.dtb.walker  7736.842105                       # average WriteReq miss latency ((Tick/Count))
system.cache_hierarchy.dptw_caches.WriteReq.avgMissLatency::total  7736.842105                       # average WriteReq miss latency ((Tick/Count))
system.cache_hierarchy.dptw_caches.WriteReq.mshrMisses::processor.cores.core.mmu.dtb.walker           19                       # number of WriteReq MSHR misses (Count)
system.cache_hierarchy.dptw_caches.WriteReq.mshrMisses::total           19                       # number of WriteReq MSHR misses (Count)
system.cache_hierarchy.dptw_caches.WriteReq.mshrMissLatency::processor.cores.core.mmu.dtb.walker       128000                       # number of WriteReq MSHR miss ticks (Tick)
system.cache_hierarchy.dptw_caches.WriteReq.mshrMissLatency::total       128000                       # number of WriteReq MSHR miss ticks (Tick)
system.cache_hierarchy.dptw_caches.WriteReq.mshrMissRate::processor.cores.core.mmu.dtb.walker     0.206522                       # mshr miss rate for WriteReq accesses (Ratio)
system.cache_hierarchy.dptw_caches.WriteReq.mshrMissRate::total     0.206522                       # mshr miss rate for WriteReq accesses (Ratio)
system.cache_hierarchy.dptw_caches.WriteReq.avgMshrMissLatency::processor.cores.core.mmu.dtb.walker  6736.842105                       # average WriteReq mshr miss latency ((Tick/Count))
system.cache_hierarchy.dptw_caches.WriteReq.avgMshrMissLatency::total  6736.842105                       # average WriteReq mshr miss latency ((Tick/Count))
system.cache_hierarchy.dptw_caches.power_state.pwrStateResidencyTicks::UNDEFINED 158011023000                       # Cumulative time (in ticks) in various power states (Tick)
system.cache_hierarchy.dptw_caches.tags.tagsInUse   103.681076                       # Average ticks per tags in use ((Tick/Count))
system.cache_hierarchy.dptw_caches.tags.totalRefs        16571                       # Total number of references to valid blocks. (Count)
system.cache_hierarchy.dptw_caches.tags.sampledRefs         1337                       # Sample count of references to valid blocks. (Count)
system.cache_hierarchy.dptw_caches.tags.avgRefs    12.394166                       # Average number of references to valid blocks. ((Count/Count))
system.cache_hierarchy.dptw_caches.tags.warmupTick            0                       # The tick when the warmup percentage was hit. (Tick)
system.cache_hierarchy.dptw_caches.tags.occupancies::processor.cores.core.mmu.dtb.walker   103.681076                       # Average occupied blocks per tick, per requestor ((Count/Tick))
system.cache_hierarchy.dptw_caches.tags.avgOccs::processor.cores.core.mmu.dtb.walker     0.810008                       # Average percentage of cache occupancy ((Ratio/Tick))
system.cache_hierarchy.dptw_caches.tags.avgOccs::total     0.810008                       # Average percentage of cache occupancy ((Ratio/Tick))
system.cache_hierarchy.dptw_caches.tags.occupanciesTaskId::1024          115                       # Occupied blocks per task id (Count)
system.cache_hierarchy.dptw_caches.tags.ageTaskId_1024::0            1                       # Occupied blocks per task id, per block age (Count)
system.cache_hierarchy.dptw_caches.tags.ageTaskId_1024::1           13                       # Occupied blocks per task id, per block age (Count)
system.cache_hierarchy.dptw_caches.tags.ageTaskId_1024::3            2                       # Occupied blocks per task id, per block age (Count)
system.cache_hierarchy.dptw_caches.tags.ageTaskId_1024::4           99                       # Occupied blocks per task id, per block age (Count)
system.cache_hierarchy.dptw_caches.tags.ratioOccsTaskId::1024     0.898438                       # Ratio of occupied blocks and all blocks, per task id (Ratio)
system.cache_hierarchy.dptw_caches.tags.tagAccesses        68974                       # Number of tag accesses (Count)
system.cache_hierarchy.dptw_caches.tags.dataAccesses        68974                       # Number of data accesses (Count)
system.cache_hierarchy.dptw_caches.tags.power_state.pwrStateResidencyTicks::UNDEFINED 158011023000                       # Cumulative time (in ticks) in various power states (Tick)
system.cache_hierarchy.iocache.demandHits::lupio_blk           15                       # number of demand (read+write) hits (Count)
system.cache_hierarchy.iocache.demandHits::total           15                       # number of demand (read+write) hits (Count)
system.cache_hierarchy.iocache.overallHits::lupio_blk           15                       # number of overall hits (Count)
system.cache_hierarchy.iocache.overallHits::total           15                       # number of overall hits (Count)
system.cache_hierarchy.iocache.demandMisses::lupio_blk         3629                       # number of demand (read+write) misses (Count)
system.cache_hierarchy.iocache.demandMisses::total         3629                       # number of demand (read+write) misses (Count)
system.cache_hierarchy.iocache.overallMisses::lupio_blk         3629                       # number of overall misses (Count)
system.cache_hierarchy.iocache.overallMisses::total         3629                       # number of overall misses (Count)
system.cache_hierarchy.iocache.demandMissLatency::lupio_blk    522222000                       # number of demand (read+write) miss ticks (Tick)
system.cache_hierarchy.iocache.demandMissLatency::total    522222000                       # number of demand (read+write) miss ticks (Tick)
system.cache_hierarchy.iocache.overallMissLatency::lupio_blk    522222000                       # number of overall miss ticks (Tick)
system.cache_hierarchy.iocache.overallMissLatency::total    522222000                       # number of overall miss ticks (Tick)
system.cache_hierarchy.iocache.demandAccesses::lupio_blk         3644                       # number of demand (read+write) accesses (Count)
system.cache_hierarchy.iocache.demandAccesses::total         3644                       # number of demand (read+write) accesses (Count)
system.cache_hierarchy.iocache.overallAccesses::lupio_blk         3644                       # number of overall (read+write) accesses (Count)
system.cache_hierarchy.iocache.overallAccesses::total         3644                       # number of overall (read+write) accesses (Count)
system.cache_hierarchy.iocache.demandMissRate::lupio_blk     0.995884                       # miss rate for demand accesses (Ratio)
system.cache_hierarchy.iocache.demandMissRate::total     0.995884                       # miss rate for demand accesses (Ratio)
system.cache_hierarchy.iocache.overallMissRate::lupio_blk     0.995884                       # miss rate for overall accesses (Ratio)
system.cache_hierarchy.iocache.overallMissRate::total     0.995884                       # miss rate for overall accesses (Ratio)
system.cache_hierarchy.iocache.demandAvgMissLatency::lupio_blk 143902.452466                       # average overall miss latency in ticks ((Tick/Count))
system.cache_hierarchy.iocache.demandAvgMissLatency::total 143902.452466                       # average overall miss latency in ticks ((Tick/Count))
system.cache_hierarchy.iocache.overallAvgMissLatency::lupio_blk 143902.452466                       # average overall miss latency ((Tick/Count))
system.cache_hierarchy.iocache.overallAvgMissLatency::total 143902.452466                       # average overall miss latency ((Tick/Count))
system.cache_hierarchy.iocache.blockedCycles::no_mshrs            0                       # number of cycles access was blocked (Cycle)
system.cache_hierarchy.iocache.blockedCycles::no_targets            0                       # number of cycles access was blocked (Cycle)
system.cache_hierarchy.iocache.blockedCauses::no_mshrs            0                       # number of times access was blocked (Count)
system.cache_hierarchy.iocache.blockedCauses::no_targets            0                       # number of times access was blocked (Count)
system.cache_hierarchy.iocache.avgBlocked::no_mshrs          nan                       # average number of cycles each access was blocked ((Cycle/Count))
system.cache_hierarchy.iocache.avgBlocked::no_targets          nan                       # average number of cycles each access was blocked ((Cycle/Count))
system.cache_hierarchy.iocache.writebacks::writebacks          247                       # number of writebacks (Count)
system.cache_hierarchy.iocache.writebacks::total          247                       # number of writebacks (Count)
system.cache_hierarchy.iocache.demandMshrMisses::lupio_blk         3629                       # number of demand (read+write) MSHR misses (Count)
system.cache_hierarchy.iocache.demandMshrMisses::total         3629                       # number of demand (read+write) MSHR misses (Count)
system.cache_hierarchy.iocache.overallMshrMisses::lupio_blk         3629                       # number of overall MSHR misses (Count)
system.cache_hierarchy.iocache.overallMshrMisses::total         3629                       # number of overall MSHR misses (Count)
system.cache_hierarchy.iocache.demandMshrMissLatency::lupio_blk    340746026                       # number of demand (read+write) MSHR miss ticks (Tick)
system.cache_hierarchy.iocache.demandMshrMissLatency::total    340746026                       # number of demand (read+write) MSHR miss ticks (Tick)
system.cache_hierarchy.iocache.overallMshrMissLatency::lupio_blk    340746026                       # number of overall MSHR miss ticks (Tick)
system.cache_hierarchy.iocache.overallMshrMissLatency::total    340746026                       # number of overall MSHR miss ticks (Tick)
system.cache_hierarchy.iocache.demandMshrMissRate::lupio_blk     0.995884                       # mshr miss ratio for demand accesses (Ratio)
system.cache_hierarchy.iocache.demandMshrMissRate::total     0.995884                       # mshr miss ratio for demand accesses (Ratio)
system.cache_hierarchy.iocache.overallMshrMissRate::lupio_blk     0.995884                       # mshr miss ratio for overall accesses (Ratio)
system.cache_hierarchy.iocache.overallMshrMissRate::total     0.995884                       # mshr miss ratio for overall accesses (Ratio)
system.cache_hierarchy.iocache.demandAvgMshrMissLatency::lupio_blk 93895.295123                       # average overall mshr miss latency ((Tick/Count))
system.cache_hierarchy.iocache.demandAvgMshrMissLatency::total 93895.295123                       # average overall mshr miss latency ((Tick/Count))
system.cache_hierarchy.iocache.overallAvgMshrMissLatency::lupio_blk 93895.295123                       # average overall mshr miss latency ((Tick/Count))
system.cache_hierarchy.iocache.overallAvgMshrMissLatency::total 93895.295123                       # average overall mshr miss latency ((Tick/Count))
system.cache_hierarchy.iocache.replacements         3167                       # number of replacements (Count)
system.cache_hierarchy.iocache.ReadReq.hits::lupio_blk           15                       # number of ReadReq hits (Count)
system.cache_hierarchy.iocache.ReadReq.hits::total           15                       # number of ReadReq hits (Count)
system.cache_hierarchy.iocache.ReadReq.misses::lupio_blk         2989                       # number of ReadReq misses (Count)
system.cache_hierarchy.iocache.ReadReq.misses::total         2989                       # number of ReadReq misses (Count)
system.cache_hierarchy.iocache.ReadReq.missLatency::lupio_blk    445168000                       # number of ReadReq miss ticks (Tick)
system.cache_hierarchy.iocache.ReadReq.missLatency::total    445168000                       # number of ReadReq miss ticks (Tick)
system.cache_hierarchy.iocache.ReadReq.accesses::lupio_blk         3004                       # number of ReadReq accesses(hits+misses) (Count)
system.cache_hierarchy.iocache.ReadReq.accesses::total         3004                       # number of ReadReq accesses(hits+misses) (Count)
system.cache_hierarchy.iocache.ReadReq.missRate::lupio_blk     0.995007                       # miss rate for ReadReq accesses (Ratio)
system.cache_hierarchy.iocache.ReadReq.missRate::total     0.995007                       # miss rate for ReadReq accesses (Ratio)
system.cache_hierarchy.iocache.ReadReq.avgMissLatency::lupio_blk 148935.429910                       # average ReadReq miss latency ((Tick/Count))
system.cache_hierarchy.iocache.ReadReq.avgMissLatency::total 148935.429910                       # average ReadReq miss latency ((Tick/Count))
system.cache_hierarchy.iocache.ReadReq.mshrMisses::lupio_blk         2989                       # number of ReadReq MSHR misses (Count)
system.cache_hierarchy.iocache.ReadReq.mshrMisses::total         2989                       # number of ReadReq MSHR misses (Count)
system.cache_hierarchy.iocache.ReadReq.mshrMissLatency::lupio_blk    295718000                       # number of ReadReq MSHR miss ticks (Tick)
system.cache_hierarchy.iocache.ReadReq.mshrMissLatency::total    295718000                       # number of ReadReq MSHR miss ticks (Tick)
system.cache_hierarchy.iocache.ReadReq.mshrMissRate::lupio_blk     0.995007                       # mshr miss rate for ReadReq accesses (Ratio)
system.cache_hierarchy.iocache.ReadReq.mshrMissRate::total     0.995007                       # mshr miss rate for ReadReq accesses (Ratio)
system.cache_hierarchy.iocache.ReadReq.avgMshrMissLatency::lupio_blk 98935.429910                       # average ReadReq mshr miss latency ((Tick/Count))
system.cache_hierarchy.iocache.ReadReq.avgMshrMissLatency::total 98935.429910                       # average ReadReq mshr miss latency ((Tick/Count))
system.cache_hierarchy.iocache.WriteLineReq.misses::lupio_blk          576                       # number of WriteLineReq misses (Count)
system.cache_hierarchy.iocache.WriteLineReq.misses::total          576                       # number of WriteLineReq misses (Count)
system.cache_hierarchy.iocache.WriteLineReq.missLatency::lupio_blk     69394000                       # number of WriteLineReq miss ticks (Tick)
system.cache_hierarchy.iocache.WriteLineReq.missLatency::total     69394000                       # number of WriteLineReq miss ticks (Tick)
system.cache_hierarchy.iocache.WriteLineReq.accesses::lupio_blk          576                       # number of WriteLineReq accesses(hits+misses) (Count)
system.cache_hierarchy.iocache.WriteLineReq.accesses::total          576                       # number of WriteLineReq accesses(hits+misses) (Count)
system.cache_hierarchy.iocache.WriteLineReq.missRate::lupio_blk            1                       # miss rate for WriteLineReq accesses (Ratio)
system.cache_hierarchy.iocache.WriteLineReq.missRate::total            1                       # miss rate for WriteLineReq accesses (Ratio)
system.cache_hierarchy.iocache.WriteLineReq.avgMissLatency::lupio_blk 120475.694444                       # average WriteLineReq miss latency ((Tick/Count))
system.cache_hierarchy.iocache.WriteLineReq.avgMissLatency::total 120475.694444                       # average WriteLineReq miss latency ((Tick/Count))
system.cache_hierarchy.iocache.WriteLineReq.mshrMisses::lupio_blk          576                       # number of WriteLineReq MSHR misses (Count)
system.cache_hierarchy.iocache.WriteLineReq.mshrMisses::total          576                       # number of WriteLineReq MSHR misses (Count)
system.cache_hierarchy.iocache.WriteLineReq.mshrMissLatency::lupio_blk     40569025                       # number of WriteLineReq MSHR miss ticks (Tick)
system.cache_hierarchy.iocache.WriteLineReq.mshrMissLatency::total     40569025                       # number of WriteLineReq MSHR miss ticks (Tick)
system.cache_hierarchy.iocache.WriteLineReq.mshrMissRate::lupio_blk            1                       # mshr miss rate for WriteLineReq accesses (Ratio)
system.cache_hierarchy.iocache.WriteLineReq.mshrMissRate::total            1                       # mshr miss rate for WriteLineReq accesses (Ratio)
system.cache_hierarchy.iocache.WriteLineReq.avgMshrMissLatency::lupio_blk 70432.335069                       # average WriteLineReq mshr miss latency ((Tick/Count))
system.cache_hierarchy.iocache.WriteLineReq.avgMshrMissLatency::total 70432.335069                       # average WriteLineReq mshr miss latency ((Tick/Count))
system.cache_hierarchy.iocache.WriteReq.misses::lupio_blk           64                       # number of WriteReq misses (Count)
system.cache_hierarchy.iocache.WriteReq.misses::total           64                       # number of WriteReq misses (Count)
system.cache_hierarchy.iocache.WriteReq.missLatency::lupio_blk      7660000                       # number of WriteReq miss ticks (Tick)
system.cache_hierarchy.iocache.WriteReq.missLatency::total      7660000                       # number of WriteReq miss ticks (Tick)
system.cache_hierarchy.iocache.WriteReq.accesses::lupio_blk           64                       # number of WriteReq accesses(hits+misses) (Count)
system.cache_hierarchy.iocache.WriteReq.accesses::total           64                       # number of WriteReq accesses(hits+misses) (Count)
system.cache_hierarchy.iocache.WriteReq.missRate::lupio_blk            1                       # miss rate for WriteReq accesses (Ratio)
system.cache_hierarchy.iocache.WriteReq.missRate::total            1                       # miss rate for WriteReq accesses (Ratio)
system.cache_hierarchy.iocache.WriteReq.avgMissLatency::lupio_blk 119687.500000                       # average WriteReq miss latency ((Tick/Count))
system.cache_hierarchy.iocache.WriteReq.avgMissLatency::total 119687.500000                       # average WriteReq miss latency ((Tick/Count))
system.cache_hierarchy.iocache.WriteReq.mshrMisses::lupio_blk           64                       # number of WriteReq MSHR misses (Count)
system.cache_hierarchy.iocache.WriteReq.mshrMisses::total           64                       # number of WriteReq MSHR misses (Count)
system.cache_hierarchy.iocache.WriteReq.mshrMissLatency::lupio_blk      4459001                       # number of WriteReq MSHR miss ticks (Tick)
system.cache_hierarchy.iocache.WriteReq.mshrMissLatency::total      4459001                       # number of WriteReq MSHR miss ticks (Tick)
system.cache_hierarchy.iocache.WriteReq.mshrMissRate::lupio_blk            1                       # mshr miss rate for WriteReq accesses (Ratio)
system.cache_hierarchy.iocache.WriteReq.mshrMissRate::total            1                       # mshr miss rate for WriteReq accesses (Ratio)
system.cache_hierarchy.iocache.WriteReq.avgMshrMissLatency::lupio_blk 69671.890625                       # average WriteReq mshr miss latency ((Tick/Count))
system.cache_hierarchy.iocache.WriteReq.avgMshrMissLatency::total 69671.890625                       # average WriteReq mshr miss latency ((Tick/Count))
system.cache_hierarchy.iocache.power_state.pwrStateResidencyTicks::UNDEFINED 158011023000                       # Cumulative time (in ticks) in various power states (Tick)
system.cache_hierarchy.iocache.tags.tagsInUse    15.364750                       # Average ticks per tags in use ((Tick/Count))
system.cache_hierarchy.iocache.tags.totalRefs         3644                       # Total number of references to valid blocks. (Count)
system.cache_hierarchy.iocache.tags.sampledRefs         3629                       # Sample count of references to valid blocks. (Count)
system.cache_hierarchy.iocache.tags.avgRefs     1.004133                       # Average number of references to valid blocks. ((Count/Count))
system.cache_hierarchy.iocache.tags.warmupTick            0                       # The tick when the warmup percentage was hit. (Tick)
system.cache_hierarchy.iocache.tags.occupancies::lupio_blk    15.364750                       # Average occupied blocks per tick, per requestor ((Count/Tick))
system.cache_hierarchy.iocache.tags.avgOccs::lupio_blk     0.960297                       # Average percentage of cache occupancy ((Ratio/Tick))
system.cache_hierarchy.iocache.tags.avgOccs::total     0.960297                       # Average percentage of cache occupancy ((Ratio/Tick))
system.cache_hierarchy.iocache.tags.occupanciesTaskId::1023           16                       # Occupied blocks per task id (Count)
system.cache_hierarchy.iocache.tags.ageTaskId_1023::2           16                       # Occupied blocks per task id, per block age (Count)
system.cache_hierarchy.iocache.tags.ratioOccsTaskId::1023            1                       # Ratio of occupied blocks and all blocks, per task id (Ratio)
system.cache_hierarchy.iocache.tags.tagAccesses        32781                       # Number of tag accesses (Count)
system.cache_hierarchy.iocache.tags.dataAccesses        32781                       # Number of data accesses (Count)
system.cache_hierarchy.iocache.tags.power_state.pwrStateResidencyTicks::UNDEFINED 158011023000                       # Cumulative time (in ticks) in various power states (Tick)
system.cache_hierarchy.iptw_caches.demandHits::processor.cores.core.mmu.itb.walker         8169                       # number of demand (read+write) hits (Count)
system.cache_hierarchy.iptw_caches.demandHits::total         8169                       # number of demand (read+write) hits (Count)
system.cache_hierarchy.iptw_caches.overallHits::processor.cores.core.mmu.itb.walker         8169                       # number of overall hits (Count)
system.cache_hierarchy.iptw_caches.overallHits::total         8169                       # number of overall hits (Count)
system.cache_hierarchy.iptw_caches.demandMisses::processor.cores.core.mmu.itb.walker          921                       # number of demand (read+write) misses (Count)
system.cache_hierarchy.iptw_caches.demandMisses::total          921                       # number of demand (read+write) misses (Count)
system.cache_hierarchy.iptw_caches.overallMisses::processor.cores.core.mmu.itb.walker          921                       # number of overall misses (Count)
system.cache_hierarchy.iptw_caches.overallMisses::total          921                       # number of overall misses (Count)
system.cache_hierarchy.iptw_caches.demandMissLatency::processor.cores.core.mmu.itb.walker     15385000                       # number of demand (read+write) miss ticks (Tick)
system.cache_hierarchy.iptw_caches.demandMissLatency::total     15385000                       # number of demand (read+write) miss ticks (Tick)
system.cache_hierarchy.iptw_caches.overallMissLatency::processor.cores.core.mmu.itb.walker     15385000                       # number of overall miss ticks (Tick)
system.cache_hierarchy.iptw_caches.overallMissLatency::total     15385000                       # number of overall miss ticks (Tick)
system.cache_hierarchy.iptw_caches.demandAccesses::processor.cores.core.mmu.itb.walker         9090                       # number of demand (read+write) accesses (Count)
system.cache_hierarchy.iptw_caches.demandAccesses::total         9090                       # number of demand (read+write) accesses (Count)
system.cache_hierarchy.iptw_caches.overallAccesses::processor.cores.core.mmu.itb.walker         9090                       # number of overall (read+write) accesses (Count)
system.cache_hierarchy.iptw_caches.overallAccesses::total         9090                       # number of overall (read+write) accesses (Count)
system.cache_hierarchy.iptw_caches.demandMissRate::processor.cores.core.mmu.itb.walker     0.101320                       # miss rate for demand accesses (Ratio)
system.cache_hierarchy.iptw_caches.demandMissRate::total     0.101320                       # miss rate for demand accesses (Ratio)
system.cache_hierarchy.iptw_caches.overallMissRate::processor.cores.core.mmu.itb.walker     0.101320                       # miss rate for overall accesses (Ratio)
system.cache_hierarchy.iptw_caches.overallMissRate::total     0.101320                       # miss rate for overall accesses (Ratio)
system.cache_hierarchy.iptw_caches.demandAvgMissLatency::processor.cores.core.mmu.itb.walker 16704.668838                       # average overall miss latency in ticks ((Tick/Count))
system.cache_hierarchy.iptw_caches.demandAvgMissLatency::total 16704.668838                       # average overall miss latency in ticks ((Tick/Count))
system.cache_hierarchy.iptw_caches.overallAvgMissLatency::processor.cores.core.mmu.itb.walker 16704.668838                       # average overall miss latency ((Tick/Count))
system.cache_hierarchy.iptw_caches.overallAvgMissLatency::total 16704.668838                       # average overall miss latency ((Tick/Count))
system.cache_hierarchy.iptw_caches.blockedCycles::no_mshrs            0                       # number of cycles access was blocked (Cycle)
system.cache_hierarchy.iptw_caches.blockedCycles::no_targets            0                       # number of cycles access was blocked (Cycle)
system.cache_hierarchy.iptw_caches.blockedCauses::no_mshrs            0                       # number of times access was blocked (Count)
system.cache_hierarchy.iptw_caches.blockedCauses::no_targets            0                       # number of times access was blocked (Count)
system.cache_hierarchy.iptw_caches.avgBlocked::no_mshrs          nan                       # average number of cycles each access was blocked ((Cycle/Count))
system.cache_hierarchy.iptw_caches.avgBlocked::no_targets          nan                       # average number of cycles each access was blocked ((Cycle/Count))
system.cache_hierarchy.iptw_caches.writebacks::writebacks          866                       # number of writebacks (Count)
system.cache_hierarchy.iptw_caches.writebacks::total          866                       # number of writebacks (Count)
system.cache_hierarchy.iptw_caches.demandMshrMisses::processor.cores.core.mmu.itb.walker          921                       # number of demand (read+write) MSHR misses (Count)
system.cache_hierarchy.iptw_caches.demandMshrMisses::total          921                       # number of demand (read+write) MSHR misses (Count)
system.cache_hierarchy.iptw_caches.overallMshrMisses::processor.cores.core.mmu.itb.walker          921                       # number of overall MSHR misses (Count)
system.cache_hierarchy.iptw_caches.overallMshrMisses::total          921                       # number of overall MSHR misses (Count)
system.cache_hierarchy.iptw_caches.demandMshrMissLatency::processor.cores.core.mmu.itb.walker     14464000                       # number of demand (read+write) MSHR miss ticks (Tick)
system.cache_hierarchy.iptw_caches.demandMshrMissLatency::total     14464000                       # number of demand (read+write) MSHR miss ticks (Tick)
system.cache_hierarchy.iptw_caches.overallMshrMissLatency::processor.cores.core.mmu.itb.walker     14464000                       # number of overall MSHR miss ticks (Tick)
system.cache_hierarchy.iptw_caches.overallMshrMissLatency::total     14464000                       # number of overall MSHR miss ticks (Tick)
system.cache_hierarchy.iptw_caches.demandMshrMissRate::processor.cores.core.mmu.itb.walker     0.101320                       # mshr miss ratio for demand accesses (Ratio)
system.cache_hierarchy.iptw_caches.demandMshrMissRate::total     0.101320                       # mshr miss ratio for demand accesses (Ratio)
system.cache_hierarchy.iptw_caches.overallMshrMissRate::processor.cores.core.mmu.itb.walker     0.101320                       # mshr miss ratio for overall accesses (Ratio)
system.cache_hierarchy.iptw_caches.overallMshrMissRate::total     0.101320                       # mshr miss ratio for overall accesses (Ratio)
system.cache_hierarchy.iptw_caches.demandAvgMshrMissLatency::processor.cores.core.mmu.itb.walker 15704.668838                       # average overall mshr miss latency ((Tick/Count))
system.cache_hierarchy.iptw_caches.demandAvgMshrMissLatency::total 15704.668838                       # average overall mshr miss latency ((Tick/Count))
system.cache_hierarchy.iptw_caches.overallAvgMshrMissLatency::processor.cores.core.mmu.itb.walker 15704.668838                       # average overall mshr miss latency ((Tick/Count))
system.cache_hierarchy.iptw_caches.overallAvgMshrMissLatency::total 15704.668838                       # average overall mshr miss latency ((Tick/Count))
system.cache_hierarchy.iptw_caches.replacements          866                       # number of replacements (Count)
system.cache_hierarchy.iptw_caches.ReadReq.hits::processor.cores.core.mmu.itb.walker         8022                       # number of ReadReq hits (Count)
system.cache_hierarchy.iptw_caches.ReadReq.hits::total         8022                       # number of ReadReq hits (Count)
system.cache_hierarchy.iptw_caches.ReadReq.misses::processor.cores.core.mmu.itb.walker          898                       # number of ReadReq misses (Count)
system.cache_hierarchy.iptw_caches.ReadReq.misses::total          898                       # number of ReadReq misses (Count)
system.cache_hierarchy.iptw_caches.ReadReq.missLatency::processor.cores.core.mmu.itb.walker     15068000                       # number of ReadReq miss ticks (Tick)
system.cache_hierarchy.iptw_caches.ReadReq.missLatency::total     15068000                       # number of ReadReq miss ticks (Tick)
system.cache_hierarchy.iptw_caches.ReadReq.accesses::processor.cores.core.mmu.itb.walker         8920                       # number of ReadReq accesses(hits+misses) (Count)
system.cache_hierarchy.iptw_caches.ReadReq.accesses::total         8920                       # number of ReadReq accesses(hits+misses) (Count)
system.cache_hierarchy.iptw_caches.ReadReq.missRate::processor.cores.core.mmu.itb.walker     0.100673                       # miss rate for ReadReq accesses (Ratio)
system.cache_hierarchy.iptw_caches.ReadReq.missRate::total     0.100673                       # miss rate for ReadReq accesses (Ratio)
system.cache_hierarchy.iptw_caches.ReadReq.avgMissLatency::processor.cores.core.mmu.itb.walker 16779.510022                       # average ReadReq miss latency ((Tick/Count))
system.cache_hierarchy.iptw_caches.ReadReq.avgMissLatency::total 16779.510022                       # average ReadReq miss latency ((Tick/Count))
system.cache_hierarchy.iptw_caches.ReadReq.mshrMisses::processor.cores.core.mmu.itb.walker          898                       # number of ReadReq MSHR misses (Count)
system.cache_hierarchy.iptw_caches.ReadReq.mshrMisses::total          898                       # number of ReadReq MSHR misses (Count)
system.cache_hierarchy.iptw_caches.ReadReq.mshrMissLatency::processor.cores.core.mmu.itb.walker     14170000                       # number of ReadReq MSHR miss ticks (Tick)
system.cache_hierarchy.iptw_caches.ReadReq.mshrMissLatency::total     14170000                       # number of ReadReq MSHR miss ticks (Tick)
system.cache_hierarchy.iptw_caches.ReadReq.mshrMissRate::processor.cores.core.mmu.itb.walker     0.100673                       # mshr miss rate for ReadReq accesses (Ratio)
system.cache_hierarchy.iptw_caches.ReadReq.mshrMissRate::total     0.100673                       # mshr miss rate for ReadReq accesses (Ratio)
system.cache_hierarchy.iptw_caches.ReadReq.avgMshrMissLatency::processor.cores.core.mmu.itb.walker 15779.510022                       # average ReadReq mshr miss latency ((Tick/Count))
system.cache_hierarchy.iptw_caches.ReadReq.avgMshrMissLatency::total 15779.510022                       # average ReadReq mshr miss latency ((Tick/Count))
system.cache_hierarchy.iptw_caches.WriteReq.hits::processor.cores.core.mmu.itb.walker          147                       # number of WriteReq hits (Count)
system.cache_hierarchy.iptw_caches.WriteReq.hits::total          147                       # number of WriteReq hits (Count)
system.cache_hierarchy.iptw_caches.WriteReq.misses::processor.cores.core.mmu.itb.walker           23                       # number of WriteReq misses (Count)
system.cache_hierarchy.iptw_caches.WriteReq.misses::total           23                       # number of WriteReq misses (Count)
system.cache_hierarchy.iptw_caches.WriteReq.missLatency::processor.cores.core.mmu.itb.walker       317000                       # number of WriteReq miss ticks (Tick)
system.cache_hierarchy.iptw_caches.WriteReq.missLatency::total       317000                       # number of WriteReq miss ticks (Tick)
system.cache_hierarchy.iptw_caches.WriteReq.accesses::processor.cores.core.mmu.itb.walker          170                       # number of WriteReq accesses(hits+misses) (Count)
system.cache_hierarchy.iptw_caches.WriteReq.accesses::total          170                       # number of WriteReq accesses(hits+misses) (Count)
system.cache_hierarchy.iptw_caches.WriteReq.missRate::processor.cores.core.mmu.itb.walker     0.135294                       # miss rate for WriteReq accesses (Ratio)
system.cache_hierarchy.iptw_caches.WriteReq.missRate::total     0.135294                       # miss rate for WriteReq accesses (Ratio)
system.cache_hierarchy.iptw_caches.WriteReq.avgMissLatency::processor.cores.core.mmu.itb.walker 13782.608696                       # average WriteReq miss latency ((Tick/Count))
system.cache_hierarchy.iptw_caches.WriteReq.avgMissLatency::total 13782.608696                       # average WriteReq miss latency ((Tick/Count))
system.cache_hierarchy.iptw_caches.WriteReq.mshrMisses::processor.cores.core.mmu.itb.walker           23                       # number of WriteReq MSHR misses (Count)
system.cache_hierarchy.iptw_caches.WriteReq.mshrMisses::total           23                       # number of WriteReq MSHR misses (Count)
system.cache_hierarchy.iptw_caches.WriteReq.mshrMissLatency::processor.cores.core.mmu.itb.walker       294000                       # number of WriteReq MSHR miss ticks (Tick)
system.cache_hierarchy.iptw_caches.WriteReq.mshrMissLatency::total       294000                       # number of WriteReq MSHR miss ticks (Tick)
system.cache_hierarchy.iptw_caches.WriteReq.mshrMissRate::processor.cores.core.mmu.itb.walker     0.135294                       # mshr miss rate for WriteReq accesses (Ratio)
system.cache_hierarchy.iptw_caches.WriteReq.mshrMissRate::total     0.135294                       # mshr miss rate for WriteReq accesses (Ratio)
system.cache_hierarchy.iptw_caches.WriteReq.avgMshrMissLatency::processor.cores.core.mmu.itb.walker 12782.608696                       # average WriteReq mshr miss latency ((Tick/Count))
system.cache_hierarchy.iptw_caches.WriteReq.avgMshrMissLatency::total 12782.608696                       # average WriteReq mshr miss latency ((Tick/Count))
system.cache_hierarchy.iptw_caches.power_state.pwrStateResidencyTicks::UNDEFINED 158011023000                       # Cumulative time (in ticks) in various power states (Tick)
system.cache_hierarchy.iptw_caches.tags.tagsInUse    37.446288                       # Average ticks per tags in use ((Tick/Count))
system.cache_hierarchy.iptw_caches.tags.totalRefs         7239                       # Total number of references to valid blocks. (Count)
system.cache_hierarchy.iptw_caches.tags.sampledRefs          872                       # Sample count of references to valid blocks. (Count)
system.cache_hierarchy.iptw_caches.tags.avgRefs     8.301606                       # Average number of references to valid blocks. ((Count/Count))
system.cache_hierarchy.iptw_caches.tags.warmupTick            0                       # The tick when the warmup percentage was hit. (Tick)
system.cache_hierarchy.iptw_caches.tags.occupancies::processor.cores.core.mmu.itb.walker    37.446288                       # Average occupied blocks per tick, per requestor ((Count/Tick))
system.cache_hierarchy.iptw_caches.tags.avgOccs::processor.cores.core.mmu.itb.walker     0.292549                       # Average percentage of cache occupancy ((Ratio/Tick))
system.cache_hierarchy.iptw_caches.tags.avgOccs::total     0.292549                       # Average percentage of cache occupancy ((Ratio/Tick))
system.cache_hierarchy.iptw_caches.tags.occupanciesTaskId::1024           39                       # Occupied blocks per task id (Count)
system.cache_hierarchy.iptw_caches.tags.ageTaskId_1024::1            8                       # Occupied blocks per task id, per block age (Count)
system.cache_hierarchy.iptw_caches.tags.ageTaskId_1024::4           31                       # Occupied blocks per task id, per block age (Count)
system.cache_hierarchy.iptw_caches.tags.ratioOccsTaskId::1024     0.304688                       # Ratio of occupied blocks and all blocks, per task id (Ratio)
system.cache_hierarchy.iptw_caches.tags.tagAccesses        37258                       # Number of tag accesses (Count)
system.cache_hierarchy.iptw_caches.tags.dataAccesses        37258                       # Number of data accesses (Count)
system.cache_hierarchy.iptw_caches.tags.power_state.pwrStateResidencyTicks::UNDEFINED 158011023000                       # Cumulative time (in ticks) in various power states (Tick)
system.cache_hierarchy.l1dcaches.demandHits::processor.cores.core.data     17632790                       # number of demand (read+write) hits (Count)
system.cache_hierarchy.l1dcaches.demandHits::total     17632790                       # number of demand (read+write) hits (Count)
system.cache_hierarchy.l1dcaches.overallHits::processor.cores.core.data     17632790                       # number of overall hits (Count)
system.cache_hierarchy.l1dcaches.overallHits::total     17632790                       # number of overall hits (Count)
system.cache_hierarchy.l1dcaches.demandMisses::processor.cores.core.data        62176                       # number of demand (read+write) misses (Count)
system.cache_hierarchy.l1dcaches.demandMisses::total        62176                       # number of demand (read+write) misses (Count)
system.cache_hierarchy.l1dcaches.overallMisses::processor.cores.core.data        62176                       # number of overall misses (Count)
system.cache_hierarchy.l1dcaches.overallMisses::total        62176                       # number of overall misses (Count)
system.cache_hierarchy.l1dcaches.demandMissLatency::processor.cores.core.data   1485433997                       # number of demand (read+write) miss ticks (Tick)
system.cache_hierarchy.l1dcaches.demandMissLatency::total   1485433997                       # number of demand (read+write) miss ticks (Tick)
system.cache_hierarchy.l1dcaches.overallMissLatency::processor.cores.core.data   1485433997                       # number of overall miss ticks (Tick)
system.cache_hierarchy.l1dcaches.overallMissLatency::total   1485433997                       # number of overall miss ticks (Tick)
system.cache_hierarchy.l1dcaches.demandAccesses::processor.cores.core.data     17694966                       # number of demand (read+write) accesses (Count)
system.cache_hierarchy.l1dcaches.demandAccesses::total     17694966                       # number of demand (read+write) accesses (Count)
system.cache_hierarchy.l1dcaches.overallAccesses::processor.cores.core.data     17694966                       # number of overall (read+write) accesses (Count)
system.cache_hierarchy.l1dcaches.overallAccesses::total     17694966                       # number of overall (read+write) accesses (Count)
system.cache_hierarchy.l1dcaches.demandMissRate::processor.cores.core.data     0.003514                       # miss rate for demand accesses (Ratio)
system.cache_hierarchy.l1dcaches.demandMissRate::total     0.003514                       # miss rate for demand accesses (Ratio)
system.cache_hierarchy.l1dcaches.overallMissRate::processor.cores.core.data     0.003514                       # miss rate for overall accesses (Ratio)
system.cache_hierarchy.l1dcaches.overallMissRate::total     0.003514                       # miss rate for overall accesses (Ratio)
system.cache_hierarchy.l1dcaches.demandAvgMissLatency::processor.cores.core.data 23890.793827                       # average overall miss latency in ticks ((Tick/Count))
system.cache_hierarchy.l1dcaches.demandAvgMissLatency::total 23890.793827                       # average overall miss latency in ticks ((Tick/Count))
system.cache_hierarchy.l1dcaches.overallAvgMissLatency::processor.cores.core.data 23890.793827                       # average overall miss latency ((Tick/Count))
system.cache_hierarchy.l1dcaches.overallAvgMissLatency::total 23890.793827                       # average overall miss latency ((Tick/Count))
system.cache_hierarchy.l1dcaches.blockedCycles::no_mshrs          225                       # number of cycles access was blocked (Cycle)
system.cache_hierarchy.l1dcaches.blockedCycles::no_targets        30802                       # number of cycles access was blocked (Cycle)
system.cache_hierarchy.l1dcaches.blockedCauses::no_mshrs           34                       # number of times access was blocked (Count)
system.cache_hierarchy.l1dcaches.blockedCauses::no_targets         2134                       # number of times access was blocked (Count)
system.cache_hierarchy.l1dcaches.avgBlocked::no_mshrs     6.617647                       # average number of cycles each access was blocked ((Cycle/Count))
system.cache_hierarchy.l1dcaches.avgBlocked::no_targets    14.433927                       # average number of cycles each access was blocked ((Cycle/Count))
system.cache_hierarchy.l1dcaches.writebacks::writebacks        10153                       # number of writebacks (Count)
system.cache_hierarchy.l1dcaches.writebacks::total        10153                       # number of writebacks (Count)
system.cache_hierarchy.l1dcaches.demandMshrHits::processor.cores.core.data        52999                       # number of demand (read+write) MSHR hits (Count)
system.cache_hierarchy.l1dcaches.demandMshrHits::total        52999                       # number of demand (read+write) MSHR hits (Count)
system.cache_hierarchy.l1dcaches.overallMshrHits::processor.cores.core.data        52999                       # number of overall MSHR hits (Count)
system.cache_hierarchy.l1dcaches.overallMshrHits::total        52999                       # number of overall MSHR hits (Count)
system.cache_hierarchy.l1dcaches.demandMshrMisses::processor.cores.core.data         9177                       # number of demand (read+write) MSHR misses (Count)
system.cache_hierarchy.l1dcaches.demandMshrMisses::total         9177                       # number of demand (read+write) MSHR misses (Count)
system.cache_hierarchy.l1dcaches.overallMshrMisses::cache_hierarchy.l1dcaches.prefetcher         3421                       # number of overall MSHR misses (Count)
system.cache_hierarchy.l1dcaches.overallMshrMisses::processor.cores.core.data         9177                       # number of overall MSHR misses (Count)
system.cache_hierarchy.l1dcaches.overallMshrMisses::total        12598                       # number of overall MSHR misses (Count)
system.cache_hierarchy.l1dcaches.overallMshrUncacheable::processor.cores.core.data         1357                       # number of overall MSHR uncacheable misses (Count)
system.cache_hierarchy.l1dcaches.overallMshrUncacheable::total         1357                       # number of overall MSHR uncacheable misses (Count)
system.cache_hierarchy.l1dcaches.demandMshrMissLatency::processor.cores.core.data    213807000                       # number of demand (read+write) MSHR miss ticks (Tick)
system.cache_hierarchy.l1dcaches.demandMshrMissLatency::total    213807000                       # number of demand (read+write) MSHR miss ticks (Tick)
system.cache_hierarchy.l1dcaches.overallMshrMissLatency::cache_hierarchy.l1dcaches.prefetcher    116479648                       # number of overall MSHR miss ticks (Tick)
system.cache_hierarchy.l1dcaches.overallMshrMissLatency::processor.cores.core.data    213807000                       # number of overall MSHR miss ticks (Tick)
system.cache_hierarchy.l1dcaches.overallMshrMissLatency::total    330286648                       # number of overall MSHR miss ticks (Tick)
system.cache_hierarchy.l1dcaches.overallMshrUncacheableLatency::processor.cores.core.data     44703000                       # number of overall MSHR uncacheable ticks (Tick)
system.cache_hierarchy.l1dcaches.overallMshrUncacheableLatency::total     44703000                       # number of overall MSHR uncacheable ticks (Tick)
system.cache_hierarchy.l1dcaches.demandMshrMissRate::processor.cores.core.data     0.000519                       # mshr miss ratio for demand accesses (Ratio)
system.cache_hierarchy.l1dcaches.demandMshrMissRate::total     0.000519                       # mshr miss ratio for demand accesses (Ratio)
system.cache_hierarchy.l1dcaches.overallMshrMissRate::cache_hierarchy.l1dcaches.prefetcher          inf                       # mshr miss ratio for overall accesses (Ratio)
system.cache_hierarchy.l1dcaches.overallMshrMissRate::processor.cores.core.data     0.000519                       # mshr miss ratio for overall accesses (Ratio)
system.cache_hierarchy.l1dcaches.overallMshrMissRate::total     0.000712                       # mshr miss ratio for overall accesses (Ratio)
system.cache_hierarchy.l1dcaches.demandAvgMshrMissLatency::processor.cores.core.data 23298.136646                       # average overall mshr miss latency ((Tick/Count))
system.cache_hierarchy.l1dcaches.demandAvgMshrMissLatency::total 23298.136646                       # average overall mshr miss latency ((Tick/Count))
system.cache_hierarchy.l1dcaches.overallAvgMshrMissLatency::cache_hierarchy.l1dcaches.prefetcher 34048.420930                       # average overall mshr miss latency ((Tick/Count))
system.cache_hierarchy.l1dcaches.overallAvgMshrMissLatency::processor.cores.core.data 23298.136646                       # average overall mshr miss latency ((Tick/Count))
system.cache_hierarchy.l1dcaches.overallAvgMshrMissLatency::total 26217.387522                       # average overall mshr miss latency ((Tick/Count))
system.cache_hierarchy.l1dcaches.overallAvgMshrUncacheableLatency::processor.cores.core.data 32942.520265                       # average overall mshr uncacheable latency ((Tick/Count))
system.cache_hierarchy.l1dcaches.overallAvgMshrUncacheableLatency::total 32942.520265                       # average overall mshr uncacheable latency ((Tick/Count))
system.cache_hierarchy.l1dcaches.replacements        10153                       # number of replacements (Count)
system.cache_hierarchy.l1dcaches.HardPFReq.mshrMisses::cache_hierarchy.l1dcaches.prefetcher         3421                       # number of HardPFReq MSHR misses (Count)
system.cache_hierarchy.l1dcaches.HardPFReq.mshrMisses::total         3421                       # number of HardPFReq MSHR misses (Count)
system.cache_hierarchy.l1dcaches.HardPFReq.mshrMissLatency::cache_hierarchy.l1dcaches.prefetcher    116479648                       # number of HardPFReq MSHR miss ticks (Tick)
system.cache_hierarchy.l1dcaches.HardPFReq.mshrMissLatency::total    116479648                       # number of HardPFReq MSHR miss ticks (Tick)
system.cache_hierarchy.l1dcaches.HardPFReq.mshrMissRate::cache_hierarchy.l1dcaches.prefetcher          inf                       # mshr miss rate for HardPFReq accesses (Ratio)
system.cache_hierarchy.l1dcaches.HardPFReq.mshrMissRate::total          inf                       # mshr miss rate for HardPFReq accesses (Ratio)
system.cache_hierarchy.l1dcaches.HardPFReq.avgMshrMissLatency::cache_hierarchy.l1dcaches.prefetcher 34048.420930                       # average HardPFReq mshr miss latency ((Tick/Count))
system.cache_hierarchy.l1dcaches.HardPFReq.avgMshrMissLatency::total 34048.420930                       # average HardPFReq mshr miss latency ((Tick/Count))
system.cache_hierarchy.l1dcaches.ReadReq.hits::processor.cores.core.data      8185633                       # number of ReadReq hits (Count)
system.cache_hierarchy.l1dcaches.ReadReq.hits::total      8185633                       # number of ReadReq hits (Count)
system.cache_hierarchy.l1dcaches.ReadReq.misses::processor.cores.core.data        12959                       # number of ReadReq misses (Count)
system.cache_hierarchy.l1dcaches.ReadReq.misses::total        12959                       # number of ReadReq misses (Count)
system.cache_hierarchy.l1dcaches.ReadReq.missLatency::processor.cores.core.data    234947000                       # number of ReadReq miss ticks (Tick)
system.cache_hierarchy.l1dcaches.ReadReq.missLatency::total    234947000                       # number of ReadReq miss ticks (Tick)
system.cache_hierarchy.l1dcaches.ReadReq.accesses::processor.cores.core.data      8198592                       # number of ReadReq accesses(hits+misses) (Count)
system.cache_hierarchy.l1dcaches.ReadReq.accesses::total      8198592                       # number of ReadReq accesses(hits+misses) (Count)
system.cache_hierarchy.l1dcaches.ReadReq.missRate::processor.cores.core.data     0.001581                       # miss rate for ReadReq accesses (Ratio)
system.cache_hierarchy.l1dcaches.ReadReq.missRate::total     0.001581                       # miss rate for ReadReq accesses (Ratio)
system.cache_hierarchy.l1dcaches.ReadReq.avgMissLatency::processor.cores.core.data 18130.025465                       # average ReadReq miss latency ((Tick/Count))
system.cache_hierarchy.l1dcaches.ReadReq.avgMissLatency::total 18130.025465                       # average ReadReq miss latency ((Tick/Count))
system.cache_hierarchy.l1dcaches.ReadReq.mshrHits::processor.cores.core.data         7411                       # number of ReadReq MSHR hits (Count)
system.cache_hierarchy.l1dcaches.ReadReq.mshrHits::total         7411                       # number of ReadReq MSHR hits (Count)
system.cache_hierarchy.l1dcaches.ReadReq.mshrMisses::processor.cores.core.data         5548                       # number of ReadReq MSHR misses (Count)
system.cache_hierarchy.l1dcaches.ReadReq.mshrMisses::total         5548                       # number of ReadReq MSHR misses (Count)
system.cache_hierarchy.l1dcaches.ReadReq.mshrUncacheable::processor.cores.core.data          485                       # number of ReadReq MSHR uncacheable (Count)
system.cache_hierarchy.l1dcaches.ReadReq.mshrUncacheable::total          485                       # number of ReadReq MSHR uncacheable (Count)
system.cache_hierarchy.l1dcaches.ReadReq.mshrMissLatency::processor.cores.core.data     97536000                       # number of ReadReq MSHR miss ticks (Tick)
system.cache_hierarchy.l1dcaches.ReadReq.mshrMissLatency::total     97536000                       # number of ReadReq MSHR miss ticks (Tick)
system.cache_hierarchy.l1dcaches.ReadReq.mshrUncacheableLatency::processor.cores.core.data     44703000                       # number of ReadReq MSHR uncacheable ticks (Tick)
system.cache_hierarchy.l1dcaches.ReadReq.mshrUncacheableLatency::total     44703000                       # number of ReadReq MSHR uncacheable ticks (Tick)
system.cache_hierarchy.l1dcaches.ReadReq.mshrMissRate::processor.cores.core.data     0.000677                       # mshr miss rate for ReadReq accesses (Ratio)
system.cache_hierarchy.l1dcaches.ReadReq.mshrMissRate::total     0.000677                       # mshr miss rate for ReadReq accesses (Ratio)
system.cache_hierarchy.l1dcaches.ReadReq.avgMshrMissLatency::processor.cores.core.data 17580.389329                       # average ReadReq mshr miss latency ((Tick/Count))
system.cache_hierarchy.l1dcaches.ReadReq.avgMshrMissLatency::total 17580.389329                       # average ReadReq mshr miss latency ((Tick/Count))
system.cache_hierarchy.l1dcaches.ReadReq.avgMshrUncacheableLatency::processor.cores.core.data 92171.134021                       # average ReadReq mshr uncacheable latency ((Tick/Count))
system.cache_hierarchy.l1dcaches.ReadReq.avgMshrUncacheableLatency::total 92171.134021                       # average ReadReq mshr uncacheable latency ((Tick/Count))
system.cache_hierarchy.l1dcaches.SwapReq.hits::processor.cores.core.data       271240                       # number of SwapReq hits (Count)
system.cache_hierarchy.l1dcaches.SwapReq.hits::total       271240                       # number of SwapReq hits (Count)
system.cache_hierarchy.l1dcaches.SwapReq.misses::processor.cores.core.data           30                       # number of SwapReq misses (Count)
system.cache_hierarchy.l1dcaches.SwapReq.misses::total           30                       # number of SwapReq misses (Count)
system.cache_hierarchy.l1dcaches.SwapReq.missLatency::processor.cores.core.data      1842000                       # number of SwapReq miss ticks (Tick)
system.cache_hierarchy.l1dcaches.SwapReq.missLatency::total      1842000                       # number of SwapReq miss ticks (Tick)
system.cache_hierarchy.l1dcaches.SwapReq.accesses::processor.cores.core.data       271270                       # number of SwapReq accesses(hits+misses) (Count)
system.cache_hierarchy.l1dcaches.SwapReq.accesses::total       271270                       # number of SwapReq accesses(hits+misses) (Count)
system.cache_hierarchy.l1dcaches.SwapReq.missRate::processor.cores.core.data     0.000111                       # miss rate for SwapReq accesses (Ratio)
system.cache_hierarchy.l1dcaches.SwapReq.missRate::total     0.000111                       # miss rate for SwapReq accesses (Ratio)
system.cache_hierarchy.l1dcaches.SwapReq.avgMissLatency::processor.cores.core.data        61400                       # average SwapReq miss latency ((Tick/Count))
system.cache_hierarchy.l1dcaches.SwapReq.avgMissLatency::total        61400                       # average SwapReq miss latency ((Tick/Count))
system.cache_hierarchy.l1dcaches.SwapReq.mshrMisses::processor.cores.core.data           30                       # number of SwapReq MSHR misses (Count)
system.cache_hierarchy.l1dcaches.SwapReq.mshrMisses::total           30                       # number of SwapReq MSHR misses (Count)
system.cache_hierarchy.l1dcaches.SwapReq.mshrMissLatency::processor.cores.core.data      1812000                       # number of SwapReq MSHR miss ticks (Tick)
system.cache_hierarchy.l1dcaches.SwapReq.mshrMissLatency::total      1812000                       # number of SwapReq MSHR miss ticks (Tick)
system.cache_hierarchy.l1dcaches.SwapReq.mshrMissRate::processor.cores.core.data     0.000111                       # mshr miss rate for SwapReq accesses (Ratio)
system.cache_hierarchy.l1dcaches.SwapReq.mshrMissRate::total     0.000111                       # mshr miss rate for SwapReq accesses (Ratio)
system.cache_hierarchy.l1dcaches.SwapReq.avgMshrMissLatency::processor.cores.core.data        60400                       # average SwapReq mshr miss latency ((Tick/Count))
system.cache_hierarchy.l1dcaches.SwapReq.avgMshrMissLatency::total        60400                       # average SwapReq mshr miss latency ((Tick/Count))
system.cache_hierarchy.l1dcaches.WriteReq.hits::processor.cores.core.data      9447157                       # number of WriteReq hits (Count)
system.cache_hierarchy.l1dcaches.WriteReq.hits::total      9447157                       # number of WriteReq hits (Count)
system.cache_hierarchy.l1dcaches.WriteReq.misses::processor.cores.core.data        49217                       # number of WriteReq misses (Count)
system.cache_hierarchy.l1dcaches.WriteReq.misses::total        49217                       # number of WriteReq misses (Count)
system.cache_hierarchy.l1dcaches.WriteReq.missLatency::processor.cores.core.data   1250486997                       # number of WriteReq miss ticks (Tick)
system.cache_hierarchy.l1dcaches.WriteReq.missLatency::total   1250486997                       # number of WriteReq miss ticks (Tick)
system.cache_hierarchy.l1dcaches.WriteReq.accesses::processor.cores.core.data      9496374                       # number of WriteReq accesses(hits+misses) (Count)
system.cache_hierarchy.l1dcaches.WriteReq.accesses::total      9496374                       # number of WriteReq accesses(hits+misses) (Count)
system.cache_hierarchy.l1dcaches.WriteReq.missRate::processor.cores.core.data     0.005183                       # miss rate for WriteReq accesses (Ratio)
system.cache_hierarchy.l1dcaches.WriteReq.missRate::total     0.005183                       # miss rate for WriteReq accesses (Ratio)
system.cache_hierarchy.l1dcaches.WriteReq.avgMissLatency::processor.cores.core.data 25407.623321                       # average WriteReq miss latency ((Tick/Count))
system.cache_hierarchy.l1dcaches.WriteReq.avgMissLatency::total 25407.623321                       # average WriteReq miss latency ((Tick/Count))
system.cache_hierarchy.l1dcaches.WriteReq.mshrHits::processor.cores.core.data        45588                       # number of WriteReq MSHR hits (Count)
system.cache_hierarchy.l1dcaches.WriteReq.mshrHits::total        45588                       # number of WriteReq MSHR hits (Count)
system.cache_hierarchy.l1dcaches.WriteReq.mshrMisses::processor.cores.core.data         3629                       # number of WriteReq MSHR misses (Count)
system.cache_hierarchy.l1dcaches.WriteReq.mshrMisses::total         3629                       # number of WriteReq MSHR misses (Count)
system.cache_hierarchy.l1dcaches.WriteReq.mshrUncacheable::processor.cores.core.data          872                       # number of WriteReq MSHR uncacheable (Count)
system.cache_hierarchy.l1dcaches.WriteReq.mshrUncacheable::total          872                       # number of WriteReq MSHR uncacheable (Count)
system.cache_hierarchy.l1dcaches.WriteReq.mshrMissLatency::processor.cores.core.data    116271000                       # number of WriteReq MSHR miss ticks (Tick)
system.cache_hierarchy.l1dcaches.WriteReq.mshrMissLatency::total    116271000                       # number of WriteReq MSHR miss ticks (Tick)
system.cache_hierarchy.l1dcaches.WriteReq.mshrMissRate::processor.cores.core.data     0.000382                       # mshr miss rate for WriteReq accesses (Ratio)
system.cache_hierarchy.l1dcaches.WriteReq.mshrMissRate::total     0.000382                       # mshr miss rate for WriteReq accesses (Ratio)
system.cache_hierarchy.l1dcaches.WriteReq.avgMshrMissLatency::processor.cores.core.data 32039.404795                       # average WriteReq mshr miss latency ((Tick/Count))
system.cache_hierarchy.l1dcaches.WriteReq.avgMshrMissLatency::total 32039.404795                       # average WriteReq mshr miss latency ((Tick/Count))
system.cache_hierarchy.l1dcaches.power_state.pwrStateResidencyTicks::UNDEFINED 158011023000                       # Cumulative time (in ticks) in various power states (Tick)
system.cache_hierarchy.l1dcaches.prefetcher.demandMshrMisses         9177                       # demands not covered by prefetchs (Count)
system.cache_hierarchy.l1dcaches.prefetcher.pfIssued       114109                       # number of hwpf issued (Count)
system.cache_hierarchy.l1dcaches.prefetcher.pfUnused          637                       # number of HardPF blocks evicted w/o reference (Count)
system.cache_hierarchy.l1dcaches.prefetcher.pfUseful        21846                       # number of useful prefetch (Count)
system.cache_hierarchy.l1dcaches.prefetcher.pfUsefulButMiss        19294                       # number of hit on prefetch but cache block is not in an usable state (Count)
system.cache_hierarchy.l1dcaches.prefetcher.accuracy     0.191449                       # accuracy of the prefetcher (Count)
system.cache_hierarchy.l1dcaches.prefetcher.coverage     0.704187                       # coverage brought by this prefetcher (Count)
system.cache_hierarchy.l1dcaches.prefetcher.pfHitInCache        96800                       # number of prefetches hitting in cache (Count)
system.cache_hierarchy.l1dcaches.prefetcher.pfHitInMSHR        13888                       # number of prefetches hitting in a MSHR (Count)
system.cache_hierarchy.l1dcaches.prefetcher.pfHitInWB            0                       # number of prefetches hit in the Write Buffer (Count)
system.cache_hierarchy.l1dcaches.prefetcher.pfLate       110688                       # number of late prefetches (hitting in cache, MSHR or WB) (Count)
system.cache_hierarchy.l1dcaches.prefetcher.pfIdentified       191960                       # number of prefetch candidates identified (Count)
system.cache_hierarchy.l1dcaches.prefetcher.pfBufferHit        72582                       # number of redundant prefetches already in prefetch queue (Count)
system.cache_hierarchy.l1dcaches.prefetcher.pfInCache            0                       # number of redundant prefetches already in cache/mshr dropped (Count)
system.cache_hierarchy.l1dcaches.prefetcher.pfRemovedDemand          191                       # number of prefetches dropped due to a demand for the same address (Count)
system.cache_hierarchy.l1dcaches.prefetcher.pfRemovedFull            0                       # number of prefetches dropped due to prefetch queue size (Count)
system.cache_hierarchy.l1dcaches.prefetcher.pfSpanPage         9156                       # number of prefetches that crossed the page (Count)
system.cache_hierarchy.l1dcaches.prefetcher.pfUsefulSpanPage         2760                       # number of prefetches that is useful and crossed the page (Count)
system.cache_hierarchy.l1dcaches.prefetcher.power_state.pwrStateResidencyTicks::UNDEFINED 158011023000                       # Cumulative time (in ticks) in various power states (Tick)
system.cache_hierarchy.l1dcaches.tags.tagsInUse   511.846208                       # Average ticks per tags in use ((Tick/Count))
system.cache_hierarchy.l1dcaches.tags.totalRefs     44946938                       # Total number of references to valid blocks. (Count)
system.cache_hierarchy.l1dcaches.tags.sampledRefs        10293                       # Sample count of references to valid blocks. (Count)
system.cache_hierarchy.l1dcaches.tags.avgRefs  4366.748081                       # Average number of references to valid blocks. ((Count/Count))
system.cache_hierarchy.l1dcaches.tags.warmupTick            0                       # The tick when the warmup percentage was hit. (Tick)
system.cache_hierarchy.l1dcaches.tags.occupancies::cache_hierarchy.l1dcaches.prefetcher   153.918971                       # Average occupied blocks per tick, per requestor ((Count/Tick))
system.cache_hierarchy.l1dcaches.tags.occupancies::processor.cores.core.data   357.927238                       # Average occupied blocks per tick, per requestor ((Count/Tick))
system.cache_hierarchy.l1dcaches.tags.avgOccs::cache_hierarchy.l1dcaches.prefetcher     0.300623                       # Average percentage of cache occupancy ((Ratio/Tick))
system.cache_hierarchy.l1dcaches.tags.avgOccs::processor.cores.core.data     0.699077                       # Average percentage of cache occupancy ((Ratio/Tick))
system.cache_hierarchy.l1dcaches.tags.avgOccs::total     0.999700                       # Average percentage of cache occupancy ((Ratio/Tick))
system.cache_hierarchy.l1dcaches.tags.occupanciesTaskId::1022          102                       # Occupied blocks per task id (Count)
system.cache_hierarchy.l1dcaches.tags.occupanciesTaskId::1024          410                       # Occupied blocks per task id (Count)
system.cache_hierarchy.l1dcaches.tags.ageTaskId_1022::1           16                       # Occupied blocks per task id, per block age (Count)
system.cache_hierarchy.l1dcaches.tags.ageTaskId_1022::2           21                       # Occupied blocks per task id, per block age (Count)
system.cache_hierarchy.l1dcaches.tags.ageTaskId_1022::3           61                       # Occupied blocks per task id, per block age (Count)
system.cache_hierarchy.l1dcaches.tags.ageTaskId_1022::4            4                       # Occupied blocks per task id, per block age (Count)
system.cache_hierarchy.l1dcaches.tags.ageTaskId_1024::0           66                       # Occupied blocks per task id, per block age (Count)
system.cache_hierarchy.l1dcaches.tags.ageTaskId_1024::1          164                       # Occupied blocks per task id, per block age (Count)
system.cache_hierarchy.l1dcaches.tags.ageTaskId_1024::2            8                       # Occupied blocks per task id, per block age (Count)
system.cache_hierarchy.l1dcaches.tags.ageTaskId_1024::3          139                       # Occupied blocks per task id, per block age (Count)
system.cache_hierarchy.l1dcaches.tags.ageTaskId_1024::4           33                       # Occupied blocks per task id, per block age (Count)
system.cache_hierarchy.l1dcaches.tags.ratioOccsTaskId::1022     0.199219                       # Ratio of occupied blocks and all blocks, per task id (Ratio)
system.cache_hierarchy.l1dcaches.tags.ratioOccsTaskId::1024     0.800781                       # Ratio of occupied blocks and all blocks, per task id (Ratio)
system.cache_hierarchy.l1dcaches.tags.tagAccesses    143740183                       # Number of tag accesses (Count)
system.cache_hierarchy.l1dcaches.tags.dataAccesses    143740183                       # Number of data accesses (Count)
system.cache_hierarchy.l1dcaches.tags.power_state.pwrStateResidencyTicks::UNDEFINED 158011023000                       # Cumulative time (in ticks) in various power states (Tick)
system.cache_hierarchy.l1icaches.demandHits::processor.cores.core.inst     13985635                       # number of demand (read+write) hits (Count)
system.cache_hierarchy.l1icaches.demandHits::total     13985635                       # number of demand (read+write) hits (Count)
system.cache_hierarchy.l1icaches.overallHits::processor.cores.core.inst     13985635                       # number of overall hits (Count)
system.cache_hierarchy.l1icaches.overallHits::total     13985635                       # number of overall hits (Count)
system.cache_hierarchy.l1icaches.demandMisses::processor.cores.core.inst        19669                       # number of demand (read+write) misses (Count)
[...]
system.processor.cores.core.fetch.icacheStallCycles       508185                       # Number of cycles fetch is stalled on an Icache miss (Cycle)
system.processor.cores.core.fetch.insts      85258989                       # Number of instructions fetch has processed (Count)
system.processor.cores.core.fetch.branches     13564212                       # Number of branches that fetch encountered (Count)
system.processor.cores.core.fetch.predictedBranches     11033926                       # Number of branches that fetch has predicted taken (Count)
system.processor.cores.core.fetch.cycles     39978236                       # Number of cycles fetch has run and was not squashing or blocked (Cycle)
system.processor.cores.core.fetch.squashCycles       688576                       # Number of cycles fetch has spent squashing (Cycle)
system.processor.cores.core.fetch.tlbCycles        15622                       # Number of cycles fetch has spent waiting for tlb (Cycle)
system.processor.cores.core.fetch.miscStallCycles         6634                       # Number of cycles fetch has spent waiting on interrupts, or bad addresses, or out of MSHRs (Cycle)
system.processor.cores.core.fetch.pendingTrapStallCycles        10314                       # Number of stall cycles due to pending traps (Cycle)
system.processor.cores.core.fetch.cacheLines     14005304                       # Number of cache lines fetched (Count)
system.processor.cores.core.fetch.icacheSquashes        10145                       # Number of outstanding Icache misses that were squashed (Count)
system.processor.cores.core.fetch.tlbSquashes          330                       # Number of outstanding ITLB misses that were squashed (Count)
system.processor.cores.core.fetch.nisnDist::samples     40863279                       # Number of instructions fetched each cycle (Total) (Count)
system.processor.cores.core.fetch.nisnDist::mean     2.089855                       # Number of instructions fetched each cycle (Total) (Count)
system.processor.cores.core.fetch.nisnDist::stdev     2.878956                       # Number of instructions fetched each cycle (Total) (Count)
system.processor.cores.core.fetch.nisnDist::underflows            0      0.00%      0.00% # Number of instructions fetched each cycle (Total) (Count)
system.processor.cores.core.fetch.nisnDist::0     22933103     56.12%     56.12% # Number of instructions fetched each cycle (Total) (Count)
system.processor.cores.core.fetch.nisnDist::1      2335775      5.72%     61.84% # Number of instructions fetched each cycle (Total) (Count)
system.processor.cores.core.fetch.nisnDist::2      2201928      5.39%     67.23% # Number of instructions fetched each cycle (Total) (Count)
system.processor.cores.core.fetch.nisnDist::3      1207758      2.96%     70.18% # Number of instructions fetched each cycle (Total) (Count)
system.processor.cores.core.fetch.nisnDist::4      3209760      7.85%     78.04% # Number of instructions fetched each cycle (Total) (Count)
system.processor.cores.core.fetch.nisnDist::5      1371590      3.36%     81.39% # Number of instructions fetched each cycle (Total) (Count)
system.processor.cores.core.fetch.nisnDist::6      2606746      6.38%     87.77% # Number of instructions fetched each cycle (Total) (Count)
system.processor.cores.core.fetch.nisnDist::7       274981      0.67%     88.45% # Number of instructions fetched each cycle (Total) (Count)
system.processor.cores.core.fetch.nisnDist::8      4721638     11.55%    100.00% # Number of instructions fetched each cycle (Total) (Count)
system.processor.cores.core.fetch.nisnDist::overflows            0      0.00%    100.00% # Number of instructions fetched each cycle (Total) (Count)
system.processor.cores.core.fetch.nisnDist::min_value            0                       # Number of instructions fetched each cycle (Total) (Count)
system.processor.cores.core.fetch.nisnDist::max_value            8                       # Number of instructions fetched each cycle (Total) (Count)
system.processor.cores.core.fetch.nisnDist::total     40863279                       # Number of instructions fetched each cycle (Total) (Count)
system.processor.cores.core.fetch.branchRate     0.330955                       # Number of branch fetches per cycle (Ratio)
system.processor.cores.core.fetch.rate       2.080247                       # Number of inst fetches per cycle ((Count/Cycle))
system.processor.cores.core.iew.idleCycles            0                       # Number of cycles IEW is idle (Cycle)
system.processor.cores.core.iew.squashCycles       336517                       # Number of cycles IEW is squashing (Cycle)
system.processor.cores.core.iew.blockCycles      1431804                       # Number of cycles IEW is blocking (Cycle)
system.processor.cores.core.iew.unblockCycles         4746                       # Number of cycles IEW is unblocking (Cycle)
system.processor.cores.core.iew.dispatchedInsts     70342249                       # Number of instructions dispatched to IQ (Count)
system.processor.cores.core.iew.dispSquashedInsts         6149                       # Number of squashed instructions skipped by dispatch (Count)
system.processor.cores.core.iew.dispLoadInsts     14039739                       # Number of dispatched load instructions (Count)
system.processor.cores.core.iew.dispStoreInsts     11676068                       # Number of dispatched store instructions (Count)
system.processor.cores.core.iew.dispNonSpecInsts      1796420                       # Number of dispatched non-speculative instructions (Count)
system.processor.cores.core.iew.iqFullEvents          791                       # Number of times the IQ has become full, causing a stall (Count)
system.processor.cores.core.iew.lsqFullEvents         3145                       # Number of times the LSQ has become full, causing a stall (Count)
system.processor.cores.core.iew.memOrderViolationEvents       286217                       # Number of memory order violations (Count)
system.processor.cores.core.iew.predictedTakenIncorrect        24775                       # Number of branches that were predicted taken incorrectly (Count)
system.processor.cores.core.iew.predictedNotTakenIncorrect        48587                       # Number of branches that were predicted not taken incorrectly (Count)
system.processor.cores.core.iew.branchMispredicts        73362                       # Number of branch mispredicts detected at execute (Count)
system.processor.cores.core.iew.instsToCommit     65882333                       # Cumulative count of insts sent to commit (Count)
system.processor.cores.core.iew.writebackCount     65844967                       # Cumulative count of insts written-back (Count)
system.processor.cores.core.iew.producerInst     41598587                       # Number of instructions producing a value (Count)
system.processor.cores.core.iew.consumerInst     62896996                       # Number of instructions consuming a value (Count)
system.processor.cores.core.iew.wbRate       1.606561                       # Insts written-back per cycle ((Count/Cycle))
system.processor.cores.core.iew.wbFanout     0.661376                       # Average fanout of values written-back ((Count/Count))
system.processor.cores.core.lsq0.forwLoads      4644207                       # Number of loads that had data forwarded from stores (Count)
system.processor.cores.core.lsq0.squashedLoads      3154818                       # Number of loads squashed (Count)
system.processor.cores.core.lsq0.ignoredResponses          838                       # Number of memory responses ignored because the instruction is squashed (Count)
system.processor.cores.core.lsq0.memOrderViolation       286217                       # Number of memory ordering violations (Count)
system.processor.cores.core.lsq0.squashedStores      1907552                       # Number of stores squashed (Count)
system.processor.cores.core.lsq0.rescheduledLoads         1344                       # Number of loads that were rescheduled (Count)
system.processor.cores.core.lsq0.blockedByCache         2165                       # Number of times an access to memory failed due to the cache being blocked (Count)
system.processor.cores.core.lsq0.loadToUse::samples     10884921                       # Distribution of cycle latency between the first time a load is issued and its completion (Unspecified)
system.processor.cores.core.lsq0.loadToUse::mean     2.302461                       # Distribution of cycle latency between the first time a load is issued and its completion (Unspecified)
system.processor.cores.core.lsq0.loadToUse::stdev     1.410286                       # Distribution of cycle latency between the first time a load is issued and its completion (Unspecified)
system.processor.cores.core.lsq0.loadToUse::0-9     10872855     99.89%     99.89% # Distribution of cycle latency between the first time a load is issued and its completion (Unspecified)
system.processor.cores.core.lsq0.loadToUse::10-19         7852      0.07%     99.96% # Distribution of cycle latency between the first time a load is issued and its completion (Unspecified)
system.processor.cores.core.lsq0.loadToUse::20-29          622      0.01%     99.97% # Distribution of cycle latency between the first time a load is issued and its completion (Unspecified)
system.processor.cores.core.lsq0.loadToUse::30-39          349      0.00%     99.97% # Distribution of cycle latency between the first time a load is issued and its completion (Unspecified)
system.processor.cores.core.lsq0.loadToUse::40-49          325      0.00%     99.97% # Distribution of cycle latency between the first time a load is issued and its completion (Unspecified)
system.processor.cores.core.lsq0.loadToUse::50-59         1552      0.01%     99.99% # Distribution of cycle latency between the first time a load is issued and its completion (Unspecified)
system.processor.cores.core.lsq0.loadToUse::60-69          660      0.01%     99.99% # Distribution of cycle latency between the first time a load is issued and its completion (Unspecified)
system.processor.cores.core.lsq0.loadToUse::70-79          342      0.00%    100.00% # Distribution of cycle latency between the first time a load is issued and its completion (Unspecified)
system.processor.cores.core.lsq0.loadToUse::80-89           23      0.00%    100.00% # Distribution of cycle latency between the first time a load is issued and its completion (Unspecified)
system.processor.cores.core.lsq0.loadToUse::90-99           14      0.00%    100.00% # Distribution of cycle latency between the first time a load is issued and its completion (Unspecified)
system.processor.cores.core.lsq0.loadToUse::100-109           17      0.00%    100.00% # Distribution of cycle latency between the first time a load is issued and its completion (Unspecified)
system.processor.cores.core.lsq0.loadToUse::110-119            7      0.00%    100.00% # Distribution of cycle latency between the first time a load is issued and its completion (Unspecified)
system.processor.cores.core.lsq0.loadToUse::120-129            5      0.00%    100.00% # Distribution of cycle latency between the first time a load is issued and its completion (Unspecified)
system.processor.cores.core.lsq0.loadToUse::130-139          233      0.00%    100.00% # Distribution of cycle latency between the first time a load is issued and its completion (Unspecified)
system.processor.cores.core.lsq0.loadToUse::140-149            3      0.00%    100.00% # Distribution of cycle latency between the first time a load is issued and its completion (Unspecified)
system.processor.cores.core.lsq0.loadToUse::150-159            7      0.00%    100.00% # Distribution of cycle latency between the first time a load is issued and its completion (Unspecified)
system.processor.cores.core.lsq0.loadToUse::160-169           24      0.00%    100.00% # Distribution of cycle latency between the first time a load is issued and its completion (Unspecified)
system.processor.cores.core.lsq0.loadToUse::180-189            7      0.00%    100.00% # Distribution of cycle latency between the first time a load is issued and its completion (Unspecified)
system.processor.cores.core.lsq0.loadToUse::250-259            1      0.00%    100.00% # Distribution of cycle latency between the first time a load is issued and its completion (Unspecified)
system.processor.cores.core.lsq0.loadToUse::260-269            2      0.00%    100.00% # Distribution of cycle latency between the first time a load is issued and its completion (Unspecified)
system.processor.cores.core.lsq0.loadToUse::280-289            4      0.00%    100.00% # Distribution of cycle latency between the first time a load is issued and its completion (Unspecified)
system.processor.cores.core.lsq0.loadToUse::290-299            4      0.00%    100.00% # Distribution of cycle latency between the first time a load is issued and its completion (Unspecified)
system.processor.cores.core.lsq0.loadToUse::overflows           13      0.00%    100.00% # Distribution of cycle latency between the first time a load is issued and its completion (Unspecified)
system.processor.cores.core.lsq0.loadToUse::min_value            2                       # Distribution of cycle latency between the first time a load is issued and its completion (Unspecified)
system.processor.cores.core.lsq0.loadToUse::max_value          328                       # Distribution of cycle latency between the first time a load is issued and its completion (Unspecified)
system.processor.cores.core.lsq0.loadToUse::total     10884921                       # Distribution of cycle latency between the first time a load is issued and its completion (Unspecified)
system.processor.cores.core.mmu.dtb.readHits     12845228                       # read hits (Count)
system.processor.cores.core.mmu.dtb.readMisses         5791                       # read misses (Count)
system.processor.cores.core.mmu.dtb.readAccesses     12851019                       # read accesses (Count)
system.processor.cores.core.mmu.dtb.writeHits     10305319                       # write hits (Count)
system.processor.cores.core.mmu.dtb.writeMisses         1626                       # write misses (Count)
system.processor.cores.core.mmu.dtb.writeAccesses     10306945                       # write accesses (Count)
system.processor.cores.core.mmu.dtb.hits     23150547                       # Total TLB (read and write) hits (Count)
system.processor.cores.core.mmu.dtb.misses         7417                       # Total TLB (read and write) misses (Count)
system.processor.cores.core.mmu.dtb.accesses     23157964                       # Total TLB (read and write) accesses (Count)
system.processor.cores.core.mmu.dtb.walker.power_state.pwrStateResidencyTicks::UNDEFINED 158011023000                       # Cumulative time (in ticks) in various power states (Tick)
system.processor.cores.core.mmu.itb.readHits     14005575                       # read hits (Count)
system.processor.cores.core.mmu.itb.readMisses         3765                       # read misses (Count)
system.processor.cores.core.mmu.itb.readAccesses     14009340                       # read accesses (Count)
system.processor.cores.core.mmu.itb.writeHits            0                       # write hits (Count)
system.processor.cores.core.mmu.itb.writeMisses            0                       # write misses (Count)
system.processor.cores.core.mmu.itb.writeAccesses            0                       # write accesses (Count)
system.processor.cores.core.mmu.itb.hits     14005575                       # Total TLB (read and write) hits (Count)
system.processor.cores.core.mmu.itb.misses         3765                       # Total TLB (read and write) misses (Count)
system.processor.cores.core.mmu.itb.accesses     14009340                       # Total TLB (read and write) accesses (Count)
system.processor.cores.core.mmu.itb.walker.power_state.pwrStateResidencyTicks::UNDEFINED 158011023000                       # Cumulative time (in ticks) in various power states (Tick)
system.processor.cores.core.power_state.pwrStateResidencyTicks::ON 158011023000                       # Cumulative time (in ticks) in various power states (Tick)
system.processor.cores.core.rename.squashCycles       336517                       # Number of cycles rename is squashing (Cycle)
system.processor.cores.core.rename.idleCycles      2634217                       # Number of cycles rename is idle (Cycle)
system.processor.cores.core.rename.blockCycles      1455994                       # Number of cycles rename is blocking (Cycle)
system.processor.cores.core.rename.serializeStallCycles     24819050                       # count of cycles rename stalled for serializing inst (Cycle)
system.processor.cores.core.rename.runCycles      9774975                       # Number of cycles rename is running (Cycle)
system.processor.cores.core.rename.unblockCycles      1842526                       # Number of cycles rename is unblocking (Cycle)
system.processor.cores.core.rename.renamedInsts     70782688                       # Number of instructions processed by rename (Count)
system.processor.cores.core.rename.ROBFullEvents         1087                       # Number of times rename has blocked due to ROB full (Count)
system.processor.cores.core.rename.IQFullEvents       385293                       # Number of times rename has blocked due to IQ full (Count)
system.processor.cores.core.rename.LQFullEvents        50382                       # Number of times rename has blocked due to LQ full (Count)
system.processor.cores.core.rename.SQFullEvents        48748                       # Number of times rename has blocked due to SQ full (Count)
system.processor.cores.core.rename.renamedOperands     51573207                       # Number of destination operands rename has renamed (Count)
system.processor.cores.core.rename.lookups     78676668                       # Number of register rename lookups that rename has made (Count)
system.processor.cores.core.rename.intLookups     76386266                       # Number of integer rename lookups (Count)
system.processor.cores.core.rename.fpLookups        10860                       # Number of floating rename lookups (Count)
system.processor.cores.core.rename.committedMaps     42261338                       # Number of HB maps that are committed (Count)
system.processor.cores.core.rename.undoneMaps      9311869                       # Number of HB maps that are undone due to squashing (Count)
system.processor.cores.core.rename.serializing      1387353                       # count of serializing insts renamed (Count)
system.processor.cores.core.rename.tempSerializing      1389661                       # count of temporary serializing insts renamed (Count)
system.processor.cores.core.rename.skidInsts      7613809                       # count of insts added to the skid buffer (Count)
system.processor.cores.core.rob.reads       106413345                       # The number of ROB reads (Count)
system.processor.cores.core.rob.writes      142410486                       # The number of ROB writes (Count)
system.processor.cores.core.thread_0.numInsts     57760679                       # Number of Instructions committed (Count)
system.processor.cores.core.thread_0.numOps     57896308                       # Number of Ops committed (Count)
system.processor.cores.core.thread_0.numMemRefs            0                       # Number of Memory References (Count)
system.workload.inst.arm                            0                       # number of arm instructions executed (Count)
system.workload.inst.quiesce                        0                       # number of quiesce instructions executed (Count)

---------- End Simulation Statistics   ----------
